@<TRIPOS>MOLECULE
BDB50294781
 59 62 0 0 0
SMALL
GASTEIGER

@<TRIPOS>ATOM
      1 C           0.9750   -1.0267    0.4206 C.3     1  UNL1       -0.0473
      2 C          -0.4983   -1.4711    0.4705 C.3     1  UNL1       -0.0402
      3 C           1.0341    0.4494    0.0261 C.3     1  UNL1       -0.0402
      4 C          -1.1465   -1.2867   -0.9190 C.3     1  UNL1       -0.0456
      5 C           0.3896    0.6251   -1.3817 C.3     1  UNL1       -0.0456
      6 C          -1.0943    0.2009   -1.3287 C.3     1  UNL1       -0.0218
      7 C           0.2718    1.2898    1.0932 C.3     1  UNL1       -0.0456
      8 C          -1.2121    0.8644    1.1246 C.3     1  UNL1       -0.0218
      9 C          -1.2641   -0.6287    1.5150 C.3     1  UNL1       -0.0456
     10 C          -1.8840    1.0456   -0.2773 C.3     1  UNL1        0.0288
     11 N          -2.1573    2.4641   -0.6824 N.am    1  UNL1       -0.3119
     12 C          -1.1605    3.4585   -0.9001 C.2     1  UNL1        0.2138
     13 C          -1.5564    4.8619   -1.3363 C.3     1  UNL1        0.0295
     14 O           0.0270    3.1992   -0.7437 O.2     1  UNL1       -0.2758
     15 C          -0.2893    5.7720   -1.4883 C.3     1  UNL1       -0.0182
     16 C          -0.6994    7.1910   -1.9299 C.3     1  UNL1        0.0321
     17 C           0.4341    5.8808   -0.1149 C.3     1  UNL1       -0.0589
     18 C           0.6494    5.1811   -2.5804 C.3     1  UNL1       -0.0589
     19 C           0.5249    8.0860   -2.0740 C.ar    1  UNL1        0.2279
     20 O           1.7532    7.7313   -1.8544 O.2     1  UNL1       -0.3380
     21 N           2.5001    8.6889   -2.0579 N.ar    1  UNL1       -0.0610
     22 C           1.7473    9.7158   -2.4256 C.ar    1  UNL1        0.1743
     23 N           0.4780    9.3540   -2.4442 N.ar    1  UNL1       -0.1958
     24 C           2.2614   11.0731   -2.7714 C.3     1  UNL1        0.0167
     25 C           3.8003   11.0571   -2.7487 C.3     1  UNL1       -0.0556
     26 C           1.7651   11.4567   -4.1753 C.3     1  UNL1       -0.0556
     27 H           1.4189   -1.1580    1.3820 H       1  UNL1        0.0271
     28 H           1.5000   -1.6121   -0.3048 H       1  UNL1        0.0271
     29 H          -0.5432   -2.5035    0.7478 H       1  UNL1        0.0301
     30 H           2.0486    0.7866   -0.0167 H       1  UNL1        0.0301
     31 H          -2.1669   -1.6100   -0.8832 H       1  UNL1        0.0271
     32 H          -0.6142   -1.8749   -1.6427 H       1  UNL1        0.0271
     33 H           0.4562    1.6536   -1.6795 H       1  UNL1        0.0271
     34 H           0.9086    0.0154   -2.0912 H       1  UNL1        0.0271
     35 H          -1.5420    0.3582   -2.2877 H       1  UNL1        0.0319
     36 H           0.3400    2.3307    0.8429 H       1  UNL1        0.0271
     37 H           0.7111    1.1262    2.0550 H       1  UNL1        0.0271
     38 H          -1.7399    1.4744    1.8276 H       1  UNL1        0.0319
     39 H          -2.2875   -0.9517    1.5539 H       1  UNL1        0.0271
     40 H          -0.8157   -0.7602    2.4786 H       1  UNL1        0.0271
     41 H          -2.8811    0.6625   -0.2149 H       1  UNL1        0.0504
     42 H          -3.1083    2.7280   -0.8175 H       1  UNL1        0.1490
     43 H          -2.0735    4.8100   -2.2799 H       1  UNL1        0.0364
     44 H          -2.2162    5.2905   -0.6046 H       1  UNL1        0.0364
     45 H          -1.2141    7.1362   -2.8750 H       1  UNL1        0.0366
     46 H          -1.3647    7.6141   -1.1996 H       1  UNL1        0.0366
     47 H           0.7332    4.9075    0.2115 H       1  UNL1        0.0235
     48 H          -0.2276    6.3112    0.6063 H       1  UNL1        0.0235
     49 H           1.3032    6.5043   -0.2166 H       1  UNL1        0.0235
     50 H           0.1282    5.1378   -3.5136 H       1  UNL1        0.0235
     51 H           0.9513    4.1950   -2.2958 H       1  UNL1        0.0235
     52 H           1.5161    5.8038   -2.6841 H       1  UNL1        0.0235
     53 H           1.9064   11.7890   -2.0598 H       1  UNL1        0.0375
     54 H           4.1621   10.3477   -3.4624 H       1  UNL1        0.0236
     55 H           4.1417   10.7860   -1.7722 H       1  UNL1        0.0236
     56 H           4.1721   12.0334   -2.9973 H       1  UNL1        0.0236
     57 H           0.6964   11.4684   -4.1895 H       1  UNL1        0.0236
     58 H           2.1246   10.7488   -4.8909 H       1  UNL1        0.0236
     59 H           2.1337   12.4353   -4.4290 H       1  UNL1        0.0236
@<TRIPOS>BOND
     1    11    12   am
     2     1     3    1
     3    12    13    1
     4     2     4    1
     5    12    14    2
     6     3     5    1
     7    13    15    1
     8     4     6    1
     9    15    16    1
    10     5     6    1
    11    15    17    1
    12     7     8    1
    13    15    18    1
    14     3     7    1
    15    16    19    1
    16    19    20   ar
    17     2     9    1
    18     6    10    1
    19    10     8    1
    20     8     9    1
    21    20    21   ar
    22    21    22   ar
    23    22    23   ar
    24    23    19   ar
    25    22    24    1
    26    10    11    1
    27    24    25    1
    28     1     2    1
    29    24    26    1
    30     1    27    1
    31     1    28    1
    32     2    29    1
    33     3    30    1
    34     4    31    1
    35     4    32    1
    36     5    33    1
    37     5    34    1
    38     6    35    1
    39     7    36    1
    40     7    37    1
    41     8    38    1
    42     9    39    1
    43     9    40    1
    44    10    41    1
    45    11    42    1
    46    13    43    1
    47    13    44    1
    48    16    45    1
    49    16    46    1
    50    17    47    1
    51    17    48    1
    52    17    49    1
    53    18    50    1
    54    18    51    1
    55    18    52    1
    56    24    53    1
    57    25    54    1
    58    25    55    1
    59    25    56    1
    60    26    57    1
    61    26    58    1
    62    26    59    1
@<TRIPOS>MOLECULE
BDB50248426
 70 74 0 0 0
SMALL
GASTEIGER

@<TRIPOS>ATOM
      1 C           7.8032    2.9505    1.5687 C.3     1  UNL1       -0.0413
      2 C           7.2903    1.9598    2.5381 C.3     1  UNL1        0.0085
      3 C           8.5678    1.6409    1.8659 C.3     1  UNL1       -0.0413
      4 C          -3.8279    2.1862    2.0104 C.ar    1  UNL1       -0.0433
      5 C          -4.6816    2.7040    1.0494 C.ar    1  UNL1       -0.0404
      6 N          -6.1158    3.5053    2.7481 N.ar    1  UNL1       -0.2632
      7 C          -5.3142    3.0183    3.6906 C.ar    1  UNL1        0.0278
      8 C          -5.8335    3.3675    1.4572 C.ar    1  UNL1        0.0278
      9 C          -4.1474    2.3448    3.3509 C.ar    1  UNL1       -0.0404
     10 C           6.0981    1.1296    2.1368 C.ar    1  UNL1       -0.0399
     11 C           5.0424    1.7181    1.4507 C.ar    1  UNL1       -0.0562
     12 C           3.9414    0.9542    1.0832 C.ar    1  UNL1       -0.0351
     13 C           3.8952   -0.3984    1.4016 C.ar    1  UNL1        0.1055
     14 C           4.9526   -0.9863    2.0882 C.ar    1  UNL1       -0.0351
     15 C           6.0537   -0.2223    2.4557 C.ar    1  UNL1       -0.0562
     16 S           2.5122   -1.4511    0.9281 S.O2    1  UNL1        0.0612
     17 N           1.1754   -0.6749    0.1585 N.3     1  UNL1       -0.1714
     18 O           1.9987   -2.1425    2.1768 O.2     1  UNL1       -0.1528
     19 O           3.0364   -2.5226   -0.0084 O.2     1  UNL1       -0.1528
     20 C           1.2488    0.7175   -0.1801 C.3     1  UNL1        0.0418
     21 C          -0.0523    1.4065    0.2718 C.3     1  UNL1        0.0160
     22 N          -1.2115    0.7086   -0.3099 N.3     1  UNL1       -0.2992
     23 C          -1.2583   -0.6627    0.2305 C.3     1  UNL1        0.0134
     24 C           0.0079   -1.4309   -0.2006 C.3     1  UNL1        0.0336
     25 C           1.4015    0.8605   -1.7062 C.3     1  UNL1       -0.0466
     26 C          -2.4450    1.4198    0.0746 C.3     1  UNL1        0.0030
     27 C          -2.5707    1.4612    1.6128 C.3     1  UNL1       -0.0148
     28 C           7.3556    2.2312    4.1146 C.3     1  UNL1        0.0087
     29 N           6.1891    2.9130    4.8294 N.3     1  UNL1       -0.2972
     30 C           5.8959    4.2951    4.4431 C.3     1  UNL1        0.0225
     31 C           4.9306    4.9124    5.4730 C.3     1  UNL1        0.0604
     32 O           3.7164    4.1498    5.5132 O.3     1  UNL1       -0.3772
     33 C           3.9957    2.8009    5.9133 C.3     1  UNL1        0.0604
     34 C           4.9442    2.1438    4.8921 C.3     1  UNL1        0.0225
     35 H           8.2822    3.8073    2.0652 H       1  UNL1        0.0274
     36 H           7.2826    2.8918    0.6015 H       1  UNL1        0.0274
     37 H           8.4373    0.9150    1.0498 H       1  UNL1        0.0274
     38 H           9.4357    1.8301    2.5147 H       1  UNL1        0.0274
     39 H          -4.4513    2.5919   -0.0204 H       1  UNL1        0.0635
     40 H          -5.5776    3.1500    4.7504 H       1  UNL1        0.0829
     41 H          -6.5184    3.7825    0.7030 H       1  UNL1        0.0829
     42 H          -3.4868    1.9432    4.1334 H       1  UNL1        0.0635
     43 H           5.0784    2.7883    1.1987 H       1  UNL1        0.0621
     44 H           3.1058    1.4199    0.5401 H       1  UNL1        0.0637
     45 H           4.9171   -2.0565    2.3404 H       1  UNL1        0.0637
     46 H           6.8897   -0.6874    2.9988 H       1  UNL1        0.0621
     47 H           2.1112    1.1832    0.3193 H       1  UNL1        0.0490
     48 H          -0.0495    2.4537   -0.0651 H       1  UNL1        0.0442
     49 H          -0.1206    1.3765    1.3693 H       1  UNL1        0.0442
     50 H          -2.1490   -1.1798   -0.1557 H       1  UNL1        0.0440
     51 H          -1.3058   -0.6226    1.3288 H       1  UNL1        0.0440
     52 H           0.0328   -2.4076    0.3048 H       1  UNL1        0.0457
     53 H          -0.0096   -1.5829   -1.2899 H       1  UNL1        0.0457
     54 H           0.5344    0.4071   -2.2087 H       1  UNL1        0.0246
     55 H           2.3217    0.3552   -2.0347 H       1  UNL1        0.0246
     56 H           1.4580    1.9271   -1.9694 H       1  UNL1        0.0246
     57 H          -2.4117    2.4473   -0.3168 H       1  UNL1        0.0430
     58 H          -3.3160    0.8982   -0.3488 H       1  UNL1        0.0430
     59 H          -1.7000    1.9824    2.0375 H       1  UNL1        0.0326
     60 H          -2.6032    0.4338    2.0044 H       1  UNL1        0.0326
     61 H           7.5357    1.2688    4.6160 H       1  UNL1        0.0435
     62 H           8.2611    2.8212    4.3196 H       1  UNL1        0.0435
     63 H           6.8294    4.8766    4.4205 H       1  UNL1        0.0449
     64 H           5.4278    4.3085    3.4477 H       1  UNL1        0.0449
     65 H           4.7016    5.9494    5.1863 H       1  UNL1        0.0572
     66 H           5.4011    4.9036    6.4673 H       1  UNL1        0.0572
     67 H           3.0568    2.2297    5.9602 H       1  UNL1        0.0572
     68 H           4.4714    2.8039    6.9051 H       1  UNL1        0.0572
     69 H           5.1634    1.1125    5.2060 H       1  UNL1        0.0449
     70 H           4.4671    2.1348    3.9011 H       1  UNL1        0.0449
@<TRIPOS>BOND
     1     5     8   ar
     2    16    17    1
     3     8     6   ar
     4    16    18    2
     5     7     9   ar
     6    16    19    2
     7    17    20    1
     8     6     7   ar
     9    10    11   ar
    10     2     1    1
    11    11    12   ar
    12    17    24    1
    13    20    21    1
    14    21    22    1
    15    22    23    1
    16    23    24    1
    17     3     2    1
    18    20    25    1
    19    12    13   ar
    20    22    26    1
    21     1     3    1
    22    26    27    1
    23    27     4    1
    24    13    14   ar
    25     2    28    1
    26     4     5   ar
    27    28    29    1
    28    29    30    1
    29    14    15   ar
    30    15    10   ar
    31    10     2    1
    32     4     9   ar
    33    13    16    1
    34    29    34    1
    35    30    31    1
    36    31    32    1
    37    32    33    1
    38    33    34    1
    39     1    35    1
    40     1    36    1
    41     3    37    1
    42     3    38    1
    43     5    39    1
    44     7    40    1
    45     8    41    1
    46     9    42    1
    47    11    43    1
    48    12    44    1
    49    14    45    1
    50    15    46    1
    51    20    47    1
    52    21    48    1
    53    21    49    1
    54    23    50    1
    55    23    51    1
    56    24    52    1
    57    24    53    1
    58    25    54    1
    59    25    55    1
    60    25    56    1
    61    26    57    1
    62    26    58    1
    63    27    59    1
    64    27    60    1
    65    28    61    1
    66    28    62    1
    67    30    63    1
    68    30    64    1
    69    31    65    1
    70    31    66    1
    71    33    67    1
    72    33    68    1
    73    34    69    1
    74    34    70    1
@<TRIPOS>MOLECULE
BDB50174290
 61 66 0 0 0
SMALL
GASTEIGER

@<TRIPOS>ATOM
      1 C          -2.6529   -1.2888    0.2820 C.ar    1  UNL1        0.2338
      2 O          -2.7131   -2.4118   -0.3563 O.2     1  UNL1       -0.3371
      3 N          -3.8891   -2.7683   -0.4211 N.ar    1  UNL1       -0.0561
      4 C          -4.6217   -1.8546    0.1999 C.ar    1  UNL1        0.2021
      5 N          -3.8506   -0.8907    0.6639 N.ar    1  UNL1       -0.1909
      6 C          -6.0484   -1.8996    0.3345 C.ar    1  UNL1        0.0226
      7 C          -6.7049   -0.8917    1.0271 C.ar    1  UNL1       -0.0482
      8 C          -8.0870   -0.9297    1.1509 C.ar    1  UNL1       -0.0258
      9 C          -8.8048   -1.9742    0.5808 C.ar    1  UNL1        0.1234
     10 C          -8.1445   -2.9821   -0.1117 C.ar    1  UNL1       -0.0258
     11 C          -6.7622   -2.9454   -0.2355 C.ar    1  UNL1       -0.0482
     12 F         -10.1365   -2.0089    0.6989 F       1  UNL1       -0.2055
     13 C           2.3549    1.4780   -0.3641 C.ar    1  UNL1        0.1397
     14 C           0.9445   -0.8095   -1.0189 C.3     1  UNL1       -0.0395
     15 C           0.9668    0.8596   -0.7126 C.3     1  UNL1        0.0307
     16 C          -0.0379   -1.5626    0.3037 C.3     1  UNL1       -0.0380
     17 C           0.4810    0.4948    0.2897 C.3     1  UNL1       -0.0395
     18 C          -0.3883    1.8731   -0.5418 C.3     1  UNL1       -0.0395
     19 C          -1.4028   -0.5749    0.5280 C.3     1  UNL1        0.0496
     20 C          -1.0221   -0.1750   -0.5028 C.3     1  UNL1       -0.0380
     21 C          -1.4892    1.1223    0.7356 C.3     1  UNL1       -0.0380
     22 N           3.3733    0.9196    0.2933 N.ar    1  UNL1       -0.3134
     23 N           2.7146    2.7065   -0.7134 N.ar    1  UNL1       -0.1335
     24 N           3.9006    2.9090   -0.3058 N.ar    1  UNL1       -0.1290
     25 C           4.3497    1.8238    0.3236 C.ar    1  UNL1        0.1675
     26 C           3.3948   -0.3986    0.8690 C.3     1  UNL1        0.0150
     27 C           5.7907    1.7797    0.8971 C.ar    1  UNL1        0.0611
     28 C           6.4171    0.7147    1.5729 C.ar    1  UNL1        0.1342
     29 C           7.7327    0.8383    1.9956 C.ar    1  UNL1        0.0222
     30 C           8.4540    1.9951    1.7700 C.ar    1  UNL1        0.1204
     31 C           7.8488    3.0590    1.1200 C.ar    1  UNL1       -0.0193
     32 C           6.5309    2.9412    0.6925 C.ar    1  UNL1       -0.0441
     33 O           5.8134   -0.4889    1.8495 O.3     1  UNL1       -0.4943
     34 C           6.6995   -1.3780    2.5414 C.3     1  UNL1        0.0788
     35 O           9.7698    2.0637    2.1920 O.3     1  UNL1       -0.5066
     36 H          -6.1481   -0.0890    1.4636 H       1  UNL1        0.0625
     37 H          -8.5987   -0.1561    1.6844 H       1  UNL1        0.0646
     38 H          -8.7005   -3.7852   -0.5486 H       1  UNL1        0.0646
     39 H          -6.2494   -3.7191   -0.7677 H       1  UNL1        0.0625
     40 H           1.9280   -1.1910   -0.9889 H       1  UNL1        0.0275
     41 H           0.4822   -0.9948   -1.9526 H       1  UNL1        0.0275
     42 H           0.5296   -1.5918    1.1950 H       1  UNL1        0.0276
     43 H          -0.3452   -2.5333    0.0092 H       1  UNL1        0.0276
     44 H           0.2111    1.2710    0.8936 H       1  UNL1        0.0275
     45 H           0.9993   -0.2794    0.7116 H       1  UNL1        0.0275
     46 H          -0.0756    2.8365   -0.2187 H       1  UNL1        0.0275
     47 H          -0.9074    1.9341   -1.4643 H       1  UNL1        0.0275
     48 H          -1.5694    0.6020   -0.8471 H       1  UNL1        0.0276
     49 H          -0.7448   -0.9140   -1.1295 H       1  UNL1        0.0276
     50 H          -2.4827    1.4484    0.5836 H       1  UNL1        0.0276
     51 H          -1.1398    1.3813    1.7016 H       1  UNL1        0.0276
     52 H           3.1033   -1.0193    0.0011 H       1  UNL1        0.0457
     53 H           2.4884   -0.3736    1.5025 H       1  UNL1        0.0457
     54 H           4.2033   -0.6572    1.3114 H       1  UNL1        0.0457
     55 H           8.1981    0.0215    2.5066 H       1  UNL1        0.0691
     56 H           8.3918    3.9648    0.9483 H       1  UNL1        0.0654
     57 H           6.0720    3.7676    0.1913 H       1  UNL1        0.0627
     58 H           7.0062   -0.9079    3.4567 H       1  UNL1        0.0660
     59 H           7.5657   -1.5399    1.9280 H       1  UNL1        0.0660
     60 H           6.2163   -2.2957    2.7439 H       1  UNL1        0.0660
     61 H          10.0134    1.2006    2.6232 H       1  UNL1        0.2921
@<TRIPOS>BOND
     1    14    15    1
     2    14    16    1
     3    15    17    1
     4    15    18    1
     5    16    19    1
     6    17    20    1
     7    18    21    1
     8    19    20    1
     9    19    21    1
    10    13    15    1
    11     1     2   ar
    12    10    11   ar
    13    11     6   ar
    14    22    13   ar
    15    13    23   ar
    16    23    24   ar
    17    24    25   ar
    18    25    22   ar
    19     9    12    1
    20    22    26    1
    21     4     6    1
    22    25    27    1
    23     2     3   ar
    24    27    28   ar
    25     6     7   ar
    26    28    29   ar
    27     3     4   ar
    28    29    30   ar
    29     7     8   ar
    30    30    31   ar
    31     4     5   ar
    32    31    32   ar
    33    32    27   ar
    34     8     9   ar
    35    28    33    1
    36     5     1   ar
    37    33    34    1
    38     9    10   ar
    39    30    35    1
    40    19     1    1
    41     7    36    1
    42     8    37    1
    43    10    38    1
    44    11    39    1
    45    14    40    1
    46    14    41    1
    47    16    42    1
    48    16    43    1
    49    17    44    1
    50    17    45    1
    51    18    46    1
    52    18    47    1
    53    20    48    1
    54    20    49    1
    55    21    50    1
    56    21    51    1
    57    26    52    1
    58    26    53    1
    59    26    54    1
    60    29    55    1
    61    31    56    1
    62    32    57    1
    63    34    58    1
    64    34    59    1
    65    34    60    1
    66    35    61    1
@<TRIPOS>MOLECULE
BDB50294771
 65 68 0 0 0
SMALL
GASTEIGER

@<TRIPOS>ATOM
      1 C           0.7932    5.5570   -2.1077 C.3     1  UNL1       -0.0128
      2 C           2.1739    5.1008   -2.5825 C.3     1  UNL1       -0.0465
      3 C           2.0694    5.2835   -4.1072 C.3     1  UNL1       -0.0525
      4 C           1.1152    6.5049   -4.2907 C.3     1  UNL1       -0.0525
      5 C           0.6588    6.8781   -2.8574 C.3     1  UNL1       -0.0465
      6 C           1.0504   -1.2644    0.3318 C.3     1  UNL1       -0.0473
      7 C           1.3147    0.2073   -0.0087 C.3     1  UNL1       -0.0402
      8 C          -0.2629   -1.7056   -0.3381 C.3     1  UNL1       -0.0402
      9 C           1.4437    0.3600   -1.5514 C.3     1  UNL1       -0.0456
     10 C          -0.1421   -1.5482   -1.8693 C.3     1  UNL1       -0.0456
     11 C           0.1220   -0.0688   -2.2239 C.3     1  UNL1       -0.0218
     12 C          -1.4301   -0.8383    0.1841 C.3     1  UNL1       -0.0456
     13 C          -1.1733    0.6464   -0.1575 C.3     1  UNL1       -0.0218
     14 C           0.1409    1.0741    0.5296 C.3     1  UNL1       -0.0456
     15 C          -1.0680    0.7920   -1.7068 C.3     1  UNL1        0.0288
     16 N          -1.1012    2.1902   -2.2237 N.am    1  UNL1       -0.3119
     17 C          -0.1308    3.2010   -1.9609 C.2     1  UNL1        0.2138
     18 C          -0.2995    4.5566   -2.5978 C.3     1  UNL1        0.0300
     19 O           0.8427    2.9971   -1.2392 O.2     1  UNL1       -0.2758
     20 C           0.7575    5.7511   -0.5635 C.3     1  UNL1        0.0300
     21 C          -0.5729    6.2673   -0.0627 C.2     1  UNL1        0.2136
     22 N          -0.7475    6.4735    1.3037 N.am    1  UNL1       -0.3150
     23 O          -1.4990    6.5193   -0.8404 O.2     1  UNL1       -0.2758
     24 C          -1.9933    7.0007    1.7926 C.3     1  UNL1        0.0139
     25 C          -1.9417    7.1838    3.3259 C.3     1  UNL1       -0.0311
     26 C          -3.2637    7.8082    3.8070 C.3     1  UNL1       -0.0612
     27 C          -1.7461    5.8189    4.0185 C.3     1  UNL1       -0.0612
     28 H           2.3148    4.0956   -2.3551 H       1  UNL1        0.0271
     29 H           2.9097    5.7325   -2.1985 H       1  UNL1        0.0271
     30 H           3.0165    5.5087   -4.5058 H       1  UNL1        0.0265
     31 H           1.6406    4.4300   -4.5408 H       1  UNL1        0.0265
     32 H           0.2809    6.2214   -4.8689 H       1  UNL1        0.0265
     33 H           1.6434    7.3071   -4.7176 H       1  UNL1        0.0265
     34 H          -0.3387    7.1801   -2.8689 H       1  UNL1        0.0271
     35 H           1.3096    7.5869   -2.4498 H       1  UNL1        0.0271
     36 H           1.8568   -1.8662   -0.0329 H       1  UNL1        0.0271
     37 H           0.9653   -1.3769    1.3898 H       1  UNL1        0.0271
     38 H           2.2250    0.5353    0.4481 H       1  UNL1        0.0301
     39 H          -0.4533   -2.7318   -0.1022 H       1  UNL1        0.0301
     40 H           2.2405   -0.2587   -1.9065 H       1  UNL1        0.0271
     41 H           1.6512    1.3839   -1.7932 H       1  UNL1        0.0271
     42 H           0.6706   -2.1515   -2.2276 H       1  UNL1        0.0271
     43 H          -1.0518   -1.8684   -2.3345 H       1  UNL1        0.0271
     44 H           0.2059    0.0665   -3.2820 H       1  UNL1        0.0319
     45 H          -2.3435   -1.1578   -0.2746 H       1  UNL1        0.0271
     46 H          -1.5101   -0.9514    1.2488 H       1  UNL1        0.0271
     47 H          -1.9699    1.2713    0.1886 H       1  UNL1        0.0319
     48 H           0.3325    2.1052    0.3200 H       1  UNL1        0.0271
     49 H           0.0509    0.9357    1.5892 H       1  UNL1        0.0271
     50 H          -1.9710    0.4019   -2.1279 H       1  UNL1        0.0504
     51 H          -1.8632    2.4364   -2.8146 H       1  UNL1        0.1490
     52 H          -1.2739    4.9467   -2.3531 H       1  UNL1        0.0364
     53 H          -0.2353    4.4564   -3.6718 H       1  UNL1        0.0364
     54 H           1.5384    6.4457   -0.2732 H       1  UNL1        0.0364
     55 H           0.9747    4.8017   -0.0796 H       1  UNL1        0.0364
     56 H          -0.0009    6.2829    1.9313 H       1  UNL1        0.1487
     57 H          -2.7896    6.3250    1.5418 H       1  UNL1        0.0464
     58 H          -2.1858    7.9519    1.3261 H       1  UNL1        0.0464
     59 H          -1.1210    7.8242    3.5735 H       1  UNL1        0.0311
     60 H          -4.0787    7.1643    3.5540 H       1  UNL1        0.0233
     61 H          -3.4026    8.7601    3.3407 H       1  UNL1        0.0233
     62 H          -3.2308    7.9369    4.8739 H       1  UNL1        0.0233
     63 H          -0.8299    5.3803    3.6788 H       1  UNL1        0.0233
     64 H          -2.5619    5.1742    3.7618 H       1  UNL1        0.0233
     65 H          -1.7112    5.9520    5.0768 H       1  UNL1        0.0233
@<TRIPOS>BOND
     1    12    13    1
     2     8    12    1
     3     7    14    1
     4    11    15    1
     5    15    13    1
     6    13    14    1
     7     4     5    1
     8    15    16    1
     9     5     1    1
    10    16    17   am
    11     1     2    1
    12    17    18    1
    13    17    19    2
    14    18     1    1
    15     2     3    1
    16     1    20    1
    17     3     4    1
    18    20    21    1
    19     6     7    1
    20    21    22   am
    21     6     8    1
    22    21    23    2
    23     7     9    1
    24    22    24    1
    25     8    10    1
    26    24    25    1
    27     9    11    1
    28    25    26    1
    29    10    11    1
    30    25    27    1
    31     2    28    1
    32     2    29    1
    33     3    30    1
    34     3    31    1
    35     4    32    1
    36     4    33    1
    37     5    34    1
    38     5    35    1
    39     6    36    1
    40     6    37    1
    41     7    38    1
    42     8    39    1
    43     9    40    1
    44     9    41    1
    45    10    42    1
    46    10    43    1
    47    11    44    1
    48    12    45    1
    49    12    46    1
    50    13    47    1
    51    14    48    1
    52    14    49    1
    53    15    50    1
    54    16    51    1
    55    18    52    1
    56    18    53    1
    57    20    54    1
    58    20    55    1
    59    22    56    1
    60    24    57    1
    61    24    58    1
    62    25    59    1
    63    26    60    1
    64    26    61    1
    65    26    62    1
    66    27    63    1
    67    27    64    1
    68    27    65    1
@<TRIPOS>MOLECULE
BDB50192686
 50 52 0 0 0
SMALL
GASTEIGER

@<TRIPOS>ATOM
      1 O           5.5112   -2.1800   -1.1371 O.3     1  UNL1       -0.4770
      2 C           0.0594   -0.9148    1.4311 C.3     1  UNL1       -0.0307
      3 C           1.0316   -0.7498    0.2459 C.3     1  UNL1        0.0348
      4 C          -1.2573   -0.1727    1.1238 C.3     1  UNL1       -0.0371
      5 C           1.3485    0.7444    0.0462 C.3     1  UNL1       -0.0307
      6 C           0.3826   -1.3111   -1.0342 C.3     1  UNL1       -0.0307
      7 C          -1.1429    0.5282   -0.2435 C.3     1  UNL1        0.0470
      8 C           0.0401    1.5158   -0.2173 C.3     1  UNL1       -0.0371
      9 C          -0.9096   -0.5277   -1.3414 C.3     1  UNL1       -0.0371
     10 C          -2.4144    1.2776   -0.5317 C.2     1  UNL1        0.2167
     11 N          -3.1722    0.9626   -1.6610 N.am    1  UNL1       -0.3289
     12 O          -2.7882    2.1739    0.2336 O.2     1  UNL1       -0.2754
     13 N           2.2569   -1.4695    0.5204 N.am    1  UNL1       -0.3065
     14 C           3.3405   -1.5053   -0.3815 C.2     1  UNL1        0.2568
     15 O           3.2937   -0.9215   -1.4712 O.2     1  UNL1       -0.2714
     16 C           4.5721   -2.2629   -0.0016 C.3     1  UNL1        0.1799
     17 C           5.1299   -1.5888    1.2787 C.3     1  UNL1       -0.0165
     18 C           4.1257   -3.7184    0.2940 C.3     1  UNL1       -0.0165
     19 C           6.8078   -2.8261   -1.0604 C.ar    1  UNL1        0.1221
     20 C           7.2453   -3.5445    0.0479 C.ar    1  UNL1       -0.0185
     21 C           8.5033   -4.1350    0.0439 C.ar    1  UNL1       -0.0399
     22 C           9.3266   -4.0081   -1.0687 C.ar    1  UNL1        0.0412
     23 C           8.8924   -3.2910   -2.1772 C.ar    1  UNL1       -0.0399
     24 C           7.6343   -2.7006   -2.1733 C.ar    1  UNL1       -0.0185
     25 CL         10.8809   -4.7376   -1.0736 Cl      1  UNL1       -0.0835
     26 H          -0.1504   -1.9832    1.5874 H       1  UNL1        0.0286
     27 H           0.5132   -0.4935    2.3403 H       1  UNL1        0.0286
     28 H          -1.4462    0.5774    1.9059 H       1  UNL1        0.0276
     29 H          -2.0871   -0.8944    1.0990 H       1  UNL1        0.0276
     30 H           1.8316    1.1412    0.9513 H       1  UNL1        0.0286
     31 H           2.0242    0.8655   -0.8134 H       1  UNL1        0.0286
     32 H           1.0826   -1.2073   -1.8763 H       1  UNL1        0.0286
     33 H           0.1400   -2.3741   -0.8879 H       1  UNL1        0.0286
     34 H           0.1067    2.0327   -1.1860 H       1  UNL1        0.0276
     35 H          -0.1175    2.2546    0.5823 H       1  UNL1        0.0276
     36 H          -0.8122   -0.0272   -2.3161 H       1  UNL1        0.0276
     37 H          -1.7627   -1.2217   -1.3689 H       1  UNL1        0.0276
     38 H          -2.8595    0.2156   -2.2976 H       1  UNL1        0.1449
     39 H          -4.0430    1.4763   -1.8577 H       1  UNL1        0.1449
     40 H           2.3412   -1.9773    1.4125 H       1  UNL1        0.1493
     41 H           4.4002   -1.6467    2.0999 H       1  UNL1        0.0273
     42 H           5.3950   -0.5392    1.0834 H       1  UNL1        0.0273
     43 H           6.0399   -2.1263    1.5837 H       1  UNL1        0.0273
     44 H           3.6778   -4.1778   -0.5994 H       1  UNL1        0.0273
     45 H           3.4109   -3.7447    1.1297 H       1  UNL1        0.0273
     46 H           5.0141   -4.3019    0.5773 H       1  UNL1        0.0273
     47 H           6.5942   -3.6453    0.9288 H       1  UNL1        0.0654
     48 H           8.8474   -4.7026    0.9210 H       1  UNL1        0.0633
     49 H           9.5443   -3.1909   -3.0575 H       1  UNL1        0.0633
     50 H           7.2912   -2.1332   -3.0509 H       1  UNL1        0.0654
@<TRIPOS>BOND
     1     3     5    1
     2     3    13    1
     3     3     6    1
     4    13    14   am
     5     4     7    1
     6    14    15    2
     7     5     8    1
     8    14    16    1
     9    16     1    1
    10     6     9    1
    11    16    17    1
    12     7     8    1
    13    16    18    1
    14     7     9    1
    15     1    19    1
    16    19    20   ar
    17     7    10    1
    18    20    21   ar
    19     2     3    1
    20    21    22   ar
    21     2     4    1
    22    22    23   ar
    23    10    11   am
    24    23    24   ar
    25    24    19   ar
    26    10    12    2
    27    22    25    1
    28     2    26    1
    29     2    27    1
    30     4    28    1
    31     4    29    1
    32     5    30    1
    33     5    31    1
    34     6    32    1
    35     6    33    1
    36     8    34    1
    37     8    35    1
    38     9    36    1
    39     9    37    1
    40    11    38    1
    41    11    39    1
    42    13    40    1
    43    17    41    1
    44    17    42    1
    45    17    43    1
    46    18    44    1
    47    18    45    1
    48    18    46    1
    49    20    47    1
    50    21    48    1
    51    23    49    1
    52    24    50    1
@<TRIPOS>MOLECULE
BDB50273861
 53 56 0 0 0
SMALL
GASTEIGER

@<TRIPOS>ATOM
      1 C           1.2517   -0.4856    0.5771 C.3     1  UNL1       -0.0514
      2 C           1.2065    0.3346   -0.7257 C.3     1  UNL1       -0.0527
      3 C           0.0262    1.3201   -0.6685 C.3     1  UNL1       -0.0485
      4 C          -0.0549   -1.2846    0.7161 C.3     1  UNL1       -0.0340
      5 C          -1.3539   -0.9586   -0.1088 C.3     1  UNL1        0.0291
      6 C          -1.1497    1.2177    0.3645 C.3     1  UNL1       -0.0223
      7 C          -2.4572    1.5511   -0.4215 C.3     1  UNL1       -0.0471
      8 C          -3.7090    0.9033    0.2069 C.3     1  UNL1       -0.0368
      9 C          -3.6399   -0.6285    0.1219 C.3     1  UNL1        0.0153
     10 N          -2.4715   -1.0827    0.8346 N.am    1  UNL1       -0.2942
     11 C          -2.4996   -2.3506    1.5188 C.2     1  UNL1        0.2469
     12 C          -3.6858   -3.2828    1.6222 C.ar    1  UNL1        0.0387
     13 O          -1.4553   -2.7100    2.0740 O.2     1  UNL1       -0.2700
     14 C          -4.9233   -3.0102    1.0484 C.ar    1  UNL1       -0.0283
     15 C          -5.9695   -3.9149    1.1849 C.ar    1  UNL1        0.0344
     16 C          -5.7804   -5.0941    1.8956 C.ar    1  UNL1       -0.0404
     17 C          -4.5451   -5.3691    2.4700 C.ar    1  UNL1       -0.0593
     18 C          -3.4989   -4.4645    2.3335 C.ar    1  UNL1       -0.0495
     19 N          -7.2320   -3.6331    0.5974 N.am    1  UNL1       -0.2815
     20 C          -7.5321   -2.4611   -0.1475 C.2     1  UNL1        0.2483
     21 C          -8.8745   -2.2943   -0.6994 C.ar    1  UNL1        0.0370
     22 O          -6.6912   -1.5767   -0.3436 O.2     1  UNL1       -0.2699
     23 C          -9.8375   -3.2738   -0.4932 C.ar    1  UNL1       -0.0496
     24 C         -11.1150   -3.1142   -1.0188 C.ar    1  UNL1       -0.0610
     25 C         -11.4275   -1.9750   -1.7500 C.ar    1  UNL1       -0.0617
     26 C         -10.4635   -0.9946   -1.9564 C.ar    1  UNL1       -0.0610
     27 C          -9.1872   -1.1540   -1.4313 C.ar    1  UNL1       -0.0496
     28 H           2.1045   -1.1796    0.5452 H       1  UNL1        0.0266
     29 H           1.3597    0.1929    1.4362 H       1  UNL1        0.0266
     30 H           2.1472    0.8933   -0.8394 H       1  UNL1        0.0265
     31 H           1.0767   -0.3442   -1.5815 H       1  UNL1        0.0265
     32 H          -0.0134    1.9001   -1.6024 H       1  UNL1        0.0269
     33 H           0.1625    2.0057    0.1808 H       1  UNL1        0.0269
     34 H          -0.0210   -1.8833    1.6383 H       1  UNL1        0.0283
     35 H          -0.1679   -1.9536   -0.1497 H       1  UNL1        0.0283
     36 H          -1.4554   -1.6025   -0.9949 H       1  UNL1        0.0503
     37 H          -1.0073    1.8922    1.2217 H       1  UNL1        0.0319
     38 H          -2.1527    2.4158    0.1865 H       1  UNL1        0.0269
     39 H          -2.7002    1.8991   -1.4363 H       1  UNL1        0.0269
     40 H          -4.6059    1.2550   -0.3239 H       1  UNL1        0.0280
     41 H          -3.7822    1.2044    1.2624 H       1  UNL1        0.0280
     42 H          -4.5413   -1.0636    0.5781 H       1  UNL1        0.0465
     43 H          -3.5708   -0.9370   -0.9317 H       1  UNL1        0.0465
     44 H          -5.0741   -2.0771    0.4856 H       1  UNL1        0.0644
     45 H          -6.6086   -5.8100    2.0035 H       1  UNL1        0.0636
     46 H          -4.3955   -6.3024    3.0325 H       1  UNL1        0.0618
     47 H          -2.5215   -4.6828    2.7884 H       1  UNL1        0.0625
     48 H          -7.9828   -4.3275    0.7202 H       1  UNL1        0.1551
     49 H          -9.5897   -4.1756    0.0859 H       1  UNL1        0.0625
     50 H         -11.8778   -3.8897   -0.8557 H       1  UNL1        0.0618
     51 H         -12.4380   -1.8487   -2.1658 H       1  UNL1        0.0618
     52 H         -10.7113   -0.0928   -2.5354 H       1  UNL1        0.0618
     53 H          -8.4243   -0.3786   -1.5944 H       1  UNL1        0.0625
@<TRIPOS>BOND
     1    11    12    1
     2     2     3    1
     3    11    13    2
     4     3     6    1
     5    12    14   ar
     6     5     4    1
     7    14    15   ar
     8     5    10    1
     9    15    16   ar
    10     6     7    1
    11    16    17   ar
    12     7     8    1
    13    17    18   ar
    14    18    12   ar
    15     8     9    1
    16    15    19    1
    17     9    10    1
    18    19    20   am
    19     5     6    1
    20    20    21    1
    21    20    22    2
    22    21    23   ar
    23    23    24   ar
    24     1     2    1
    25    24    25   ar
    26    10    11   am
    27    25    26   ar
    28     1     4    1
    29    26    27   ar
    30    27    21   ar
    31     1    28    1
    32     1    29    1
    33     2    30    1
    34     2    31    1
    35     3    32    1
    36     3    33    1
    37     4    34    1
    38     4    35    1
    39     5    36    1
    40     6    37    1
    41     7    38    1
    42     7    39    1
    43     8    40    1
    44     8    41    1
    45     9    42    1
    46     9    43    1
    47    14    44    1
    48    16    45    1
    49    17    46    1
    50    18    47    1
    51    19    48    1
    52    23    49    1
    53    24    50    1
    54    25    51    1
    55    26    52    1
    56    27    53    1
@<TRIPOS>MOLECULE
BDB50295378
 53 55 0 0 0
SMALL
GASTEIGER

@<TRIPOS>ATOM
      1 C           1.1338   -0.6964   -0.0800 C.3     1  UNL1        0.0267
      2 C           1.0300    0.6905   -0.7730 C.3     1  UNL1        0.0366
      3 N           0.0103    1.4160   -0.1307 N.3     1  UNL1       -0.1708
      4 C          -1.2963    0.8915   -0.2494 C.3     1  UNL1        0.0447
      5 C          -1.3101   -0.4535    0.4458 C.3     1  UNL1        0.0292
      6 N          -0.2032   -1.3112   -0.0285 N.pl3   1  UNL1       -0.3266
      7 C          -1.6499    0.7116   -1.7405 C.3     1  UNL1       -0.0464
      8 C          -0.2275   -2.7716    0.2131 C.ar    1  UNL1        0.0417
      9 C           1.0216   -3.3919    0.2245 C.ar    1  UNL1       -0.0374
     10 C           1.1589   -4.7357    0.5417 C.ar    1  UNL1       -0.0247
     11 C           0.0329   -5.4853    0.8464 C.ar    1  UNL1        0.1241
     12 C          -1.2197   -4.8990    0.7689 C.ar    1  UNL1       -0.0130
     13 C          -1.3688   -3.5498    0.4600 C.ar    1  UNL1        0.0785
     14 C          -2.8111   -3.0923    0.2545 C.3     1  UNL1        0.4192
     15 F          -3.6041   -4.2118    0.1605 F       1  UNL1       -0.1658
     16 F          -2.9284   -2.3918   -0.9354 F       1  UNL1       -0.1658
     17 F          -3.2601   -2.3416    1.3233 F       1  UNL1       -0.1658
     18 F           0.1488   -6.7801    1.1736 F       1  UNL1       -0.2055
     19 S           0.2169    2.8913    0.7558 S.O2    1  UNL1        0.0626
     20 C           1.8577    3.5782    1.2178 C.ar    1  UNL1        0.1238
     21 C           3.1284    3.0013    1.0625 C.ar    1  UNL1        0.0690
     22 C           4.2562    3.6980    1.4730 C.ar    1  UNL1       -0.0204
     23 C           4.1620    4.9475    2.0541 C.ar    1  UNL1        0.0307
     24 C           2.9138    5.5225    2.2363 C.ar    1  UNL1       -0.0387
     25 C           1.7833    4.8373    1.8115 C.ar    1  UNL1       -0.0322
     26 O          -0.5715    2.7338    2.0424 O.2     1  UNL1       -0.1528
     27 O          -0.4896    3.9669   -0.0468 O.2     1  UNL1       -0.1528
     28 CL          3.4560    1.4760    0.4033 Cl      1  UNL1       -0.0815
     29 N           5.3530    5.6201    2.4470 N.pl3   1  UNL1       -0.3360
     30 C           6.6538    4.9765    2.2069 C.3     1  UNL1        0.0004
     31 C           5.2903    6.9471    3.0665 C.3     1  UNL1        0.0004
     32 H           1.5071   -0.5729    0.9129 H       1  UNL1        0.0477
     33 H           1.7952   -1.3265   -0.6386 H       1  UNL1        0.0477
     34 H           0.7837    0.5599   -1.7983 H       1  UNL1        0.0459
     35 H           1.9553    1.2092   -0.6742 H       1  UNL1        0.0459
     36 H          -2.0256    1.5618    0.2260 H       1  UNL1        0.0493
     37 H          -1.2148   -0.3060    1.5107 H       1  UNL1        0.0479
     38 H          -2.2478   -0.9456    0.2530 H       1  UNL1        0.0479
     39 H          -0.9529    0.0375   -2.1929 H       1  UNL1        0.0246
     40 H          -1.5999    1.6590   -2.2352 H       1  UNL1        0.0246
     41 H          -2.6409    0.3138   -1.8292 H       1  UNL1        0.0246
     42 H           1.8927   -2.8192   -0.0167 H       1  UNL1        0.0637
     43 H           2.1274   -5.1906    0.5512 H       1  UNL1        0.0647
     44 H          -2.0898   -5.4949    0.9499 H       1  UNL1        0.0652
     45 H           5.2213    3.2568    1.3362 H       1  UNL1        0.0651
     46 H           2.8225    6.4830    2.6990 H       1  UNL1        0.0637
     47 H           0.8232    5.2907    1.9442 H       1  UNL1        0.0638
     48 H           6.6644    4.7702    1.1355 H       1  UNL1        0.0428
     49 H           6.5770    4.0084    2.7044 H       1  UNL1        0.0428
     50 H           7.4332    5.5213    2.5149 H       1  UNL1        0.0428
     51 H           4.6241    6.8055    3.9233 H       1  UNL1        0.0428
     52 H           4.7259    7.5469    2.3456 H       1  UNL1        0.0428
     53 H           6.1731    7.3276    3.3023 H       1  UNL1        0.0428
@<TRIPOS>BOND
     1    14    15    1
     2     1     2    1
     3    14    16    1
     4     6     8    1
     5    14    17    1
     6     1     6    1
     7    11    18    1
     8     8     9   ar
     9     3    19    1
    10     2     3    1
    11    19    20    1
    12     9    10   ar
    13    20    21   ar
    14     3     4    1
    15    21    22   ar
    16    10    11   ar
    17    22    23   ar
    18     4     5    1
    19    23    24   ar
    20    11    12   ar
    21    24    25   ar
    22    25    20   ar
    23     5     6    1
    24    19    26    2
    25    12    13   ar
    26    19    27    2
    27    13     8   ar
    28    21    28    1
    29    23    29    1
    30    13    14    1
    31    29    30    1
    32     4     7    1
    33    29    31    1
    34     1    32    1
    35     1    33    1
    36     2    34    1
    37     2    35    1
    38     4    36    1
    39     5    37    1
    40     5    38    1
    41     7    39    1
    42     7    40    1
    43     7    41    1
    44     9    42    1
    45    10    43    1
    46    12    44    1
    47    22    45    1
    48    24    46    1
    49    25    47    1
    50    30    48    1
    51    30    49    1
    52    30    50    1
    53    31    51    1
    54    31    52    1
    55    31    53    1
@<TRIPOS>MOLECULE
BDB50309943
 56 60 0 0 0
SMALL
GASTEIGER

@<TRIPOS>ATOM
      1 O          -2.7574    2.4026   -1.2644 O.2     1  UNL1       -0.1497
      2 S          -2.7140    1.5463   -0.0133 S.O2    1  UNL1        0.0757
      3 O          -2.7614    2.4466    1.2056 O.2     1  UNL1       -0.1497
      4 C           1.1150   -0.7967    0.0465 C.ar    1  UNL1       -0.0611
      5 C           1.1535    0.5902    0.1069 C.ar    1  UNL1       -0.0599
      6 C          -0.0345    1.3089    0.0872 C.ar    1  UNL1       -0.0345
      7 C          -0.1065   -1.4553   -0.0449 C.ar    1  UNL1       -0.0532
      8 C          -1.3006   -0.7405   -0.0629 C.ar    1  UNL1       -0.0042
      9 C          -1.2524    0.6428    0.0073 C.ar    1  UNL1        0.1153
     10 N          -4.0386    0.4969    0.0113 N.pl3   1  UNL1       -0.1923
     11 C          -3.8346   -0.9676   -0.1874 C.2     1  UNL1        0.0918
     12 C          -2.5854   -1.5014   -0.1957 C.2     1  UNL1       -0.0721
     13 O          -2.4608   -2.8447   -0.3480 O.co2   1  UNL1       -0.8719
     14 C          -4.9804   -2.0001   -0.3497 C.2     1  UNL1        0.2079
     15 O          -4.7434   -3.1702   -0.0301 O.2     1  UNL1       -0.2853
     16 C          -6.3693   -1.7402   -0.8688 C.ar    1  UNL1        0.0236
     17 C          -7.3628   -2.6595   -0.5466 C.ar    1  UNL1       -0.0509
     18 C          -8.6716   -2.4712   -0.9744 C.ar    1  UNL1       -0.0611
     19 C          -8.9946   -1.3622   -1.7455 C.ar    1  UNL1       -0.0617
     20 C          -8.0013   -0.4576   -2.1004 C.ar    1  UNL1       -0.0611
     21 C          -6.6923   -0.6491   -1.6696 C.ar    1  UNL1       -0.0509
     22 C          -5.3240    1.1540    0.2927 C.3     1  UNL1        0.0978
     23 C          -6.2990    0.3911    1.1698 C.2     1  UNL1        0.1820
     24 C          -7.7342    0.7327    1.0576 C.ar    1  UNL1        0.0191
     25 O          -5.9389   -0.6045    1.8066 O.2     1  UNL1       -0.2903
     26 C          -8.1013    1.9358    0.4673 C.ar    1  UNL1       -0.0506
     27 C          -9.4440    2.2404    0.2761 C.ar    1  UNL1       -0.0534
     28 C         -10.4239    1.3250    0.6284 C.ar    1  UNL1       -0.0178
     29 C         -10.0600    0.1142    1.2149 C.ar    1  UNL1       -0.0534
     30 C          -8.7177   -0.1694    1.4509 C.ar    1  UNL1       -0.0506
     31 C         -11.8378    1.6452    0.3728 C.ar    1  UNL1       -0.0179
     32 C         -12.1910    2.9486    0.0322 C.ar    1  UNL1       -0.0540
     33 C         -13.5183    3.2679   -0.2241 C.ar    1  UNL1       -0.0612
     34 C         -14.4942    2.2803   -0.1631 C.ar    1  UNL1       -0.0617
     35 C         -14.1414    0.9766    0.1653 C.ar    1  UNL1       -0.0612
     36 C         -12.8144    0.6615    0.4430 C.ar    1  UNL1       -0.0540
     37 H           2.0252   -1.3586    0.0702 H       1  UNL1        0.0618
     38 H           2.0916    1.1011    0.1683 H       1  UNL1        0.0618
     39 H          -0.0126    2.3777    0.1336 H       1  UNL1        0.0637
     40 H          -0.1285   -2.5235   -0.1020 H       1  UNL1        0.0624
     41 H          -7.1162   -3.5215    0.0375 H       1  UNL1        0.0625
     42 H          -9.4290   -3.1794   -0.7102 H       1  UNL1        0.0618
     43 H         -10.0036   -1.2051   -2.0647 H       1  UNL1        0.0618
     44 H          -8.2440    0.3895   -2.7074 H       1  UNL1        0.0618
     45 H          -5.9305    0.0458   -1.9554 H       1  UNL1        0.0625
     46 H          -5.1235    2.1338    0.7573 H       1  UNL1        0.0565
     47 H          -5.8171    1.3854   -0.6628 H       1  UNL1        0.0565
     48 H          -7.3479    2.6301    0.1589 H       1  UNL1        0.0625
     49 H          -9.7221    3.1842   -0.1444 H       1  UNL1        0.0624
     50 H         -10.8124   -0.5974    1.4839 H       1  UNL1        0.0624
     51 H          -8.4419   -1.0826    1.9355 H       1  UNL1        0.0625
     52 H         -11.4380    3.7060   -0.0323 H       1  UNL1        0.0624
     53 H         -13.7893    4.2737   -0.4683 H       1  UNL1        0.0618
     54 H         -15.5158    2.5231   -0.3687 H       1  UNL1        0.0618
     55 H         -14.8910    0.2141    0.2048 H       1  UNL1        0.0618
     56 H         -12.5471   -0.3394    0.7106 H       1  UNL1        0.0624
@<TRIPOS>BOND
     1     4     5   ar
     2    17    18   ar
     3     3     2    2
     4    18    19   ar
     5     5     6   ar
     6    19    20   ar
     7     6     9   ar
     8    20    21   ar
     9    21    16   ar
    10     8    12    1
    11    10    22    1
    12     9     2    1
    13    22    23    1
    14     2    10    1
    15    23    24    1
    16    10    11    1
    17    23    25    2
    18    11    12    2
    19    24    26   ar
    20    26    27   ar
    21    12    13    1
    22    27    28   ar
    23     8     7   ar
    24    28    29   ar
    25    11    14    1
    26    29    30   ar
    27    30    24   ar
    28     7     4   ar
    29    14    15    2
    30    31    32   ar
    31     8     9   ar
    32    32    33   ar
    33    14    16    1
    34    33    34   ar
    35     2     1    2
    36    34    35   ar
    37    16    17   ar
    38    35    36   ar
    39    36    31   ar
    40    28    31    1
    41     4    37    1
    42     5    38    1
    43     6    39    1
    44     7    40    1
    45    17    41    1
    46    18    42    1
    47    19    43    1
    48    20    44    1
    49    21    45    1
    50    22    46    1
    51    22    47    1
    52    26    48    1
    53    27    49    1
    54    29    50    1
    55    30    51    1
    56    32    52    1
    57    33    53    1
    58    34    54    1
    59    35    55    1
    60    36    56    1
@<TRIPOS>MOLECULE
BDB50297909
 56 58 0 0 0
SMALL
GASTEIGER

@<TRIPOS>ATOM
      1 C           8.6171    1.0102   -0.0746 C.ar    1  UNL1        0.0428
      2 C           8.1611    2.3227   -0.1083 C.ar    1  UNL1       -0.0433
      3 C           6.7966    2.5852   -0.0820 C.ar    1  UNL1       -0.0585
      4 C           5.8883    1.5350   -0.0221 C.ar    1  UNL1       -0.0353
      5 C           6.3448    0.2230    0.0116 C.ar    1  UNL1        0.1066
      6 C           7.7089   -0.0399   -0.0146 C.ar    1  UNL1       -0.0170
      7 S           5.1900   -1.1159    0.0901 S.O2    1  UNL1        0.0587
      8 N           3.5965   -0.5205    0.0081 N.3     1  UNL1       -0.1856
      9 O           5.4358   -2.0631   -1.0686 O.2     1  UNL1       -0.1530
     10 O           5.3796   -1.8684    1.3932 O.2     1  UNL1       -0.1530
     11 C           2.4990   -1.4437   -0.0002 C.3     1  UNL1        0.0425
     12 C           1.2032   -0.6950   -0.0001 C.ar    1  UNL1       -0.0319
     13 C          -0.0001   -1.3901   -0.0003 C.ar    1  UNL1       -0.0566
     14 C          -1.2036   -0.6951   -0.0003 C.ar    1  UNL1       -0.0493
     15 C          -1.2029    0.6946   -0.0001 C.ar    1  UNL1        0.0369
     16 C           0.0006    1.3899    0.0001 C.ar    1  UNL1       -0.0493
     17 C           1.2040    0.6949    0.0001 C.ar    1  UNL1       -0.0566
     18 C          -2.5164    1.4492   -0.0001 C.2     1  UNL1        0.2466
     19 O          -2.4191    2.6824    0.0002 O.2     1  UNL1       -0.2700
     20 N          -3.8723    0.8628   -0.0004 N.am    1  UNL1       -0.2975
     21 CL         10.3028    0.6855   -0.1070 Cl      1  UNL1       -0.0835
     22 C          -5.0311    1.7339   -0.0003 C.3     1  UNL1        0.0260
     23 C          -5.0760    2.5954    1.2694 C.3     1  UNL1       -0.0343
     24 C          -6.1156    3.7164    1.1647 C.3     1  UNL1       -0.0514
     25 C          -5.0760    2.5945   -1.2702 C.3     1  UNL1       -0.0343
     26 C          -5.3956    5.0187    0.7350 C.3     1  UNL1       -0.0530
     27 C          -4.1270    3.7932   -1.1788 C.3     1  UNL1       -0.0514
     28 C          -4.9449    5.0359   -0.7508 C.3     1  UNL1       -0.0530
     29 C          -4.1413   -0.5549   -0.0009 C.3     1  UNL1        0.0038
     30 H           8.8803    3.1537   -0.1557 H       1  UNL1        0.0632
     31 H           6.4356    3.6240   -0.1087 H       1  UNL1        0.0619
     32 H           4.8082    1.7424   -0.0013 H       1  UNL1        0.0637
     33 H           8.0697   -1.0787    0.0121 H       1  UNL1        0.0652
     34 H           3.4225    0.4938   -0.0351 H       1  UNL1        0.1484
     35 H           2.5510   -2.0830    0.8934 H       1  UNL1        0.0490
     36 H           2.5572   -2.0726   -0.9007 H       1  UNL1        0.0490
     37 H          -0.0001   -2.4901   -0.0004 H       1  UNL1        0.0621
     38 H          -2.1564   -1.2448   -0.0004 H       1  UNL1        0.0625
     39 H           0.0005    2.4899    0.0003 H       1  UNL1        0.0625
     40 H           2.1568    1.2446    0.0003 H       1  UNL1        0.0621
     41 H          -5.9307    1.1010    0.0002 H       1  UNL1        0.0500
     42 H          -5.3217    1.9562    2.1302 H       1  UNL1        0.0283
     43 H          -4.0843    3.0397    1.4400 H       1  UNL1        0.0283
     44 H          -6.5968    3.8673    2.1423 H       1  UNL1        0.0266
     45 H          -6.8724    3.4488    0.4126 H       1  UNL1        0.0266
     46 H          -4.7933    1.9765   -2.1351 H       1  UNL1        0.0283
     47 H          -6.1024    2.9590   -1.4241 H       1  UNL1        0.0283
     48 H          -6.0694    5.8704    0.9102 H       1  UNL1        0.0265
     49 H          -4.5121    5.1636    1.3741 H       1  UNL1        0.0265
     50 H          -3.6661    3.9761   -2.1606 H       1  UNL1        0.0266
     51 H          -3.3467    3.5901   -0.4305 H       1  UNL1        0.0266
     52 H          -4.3384    5.9364   -0.9279 H       1  UNL1        0.0265
     53 H          -5.8364    5.1103   -1.3908 H       1  UNL1        0.0265
     54 H          -3.5822   -0.9121    0.8765 H       1  UNL1        0.0429
     55 H          -3.5820   -0.9116   -0.8783 H       1  UNL1        0.0429
     56 H          -5.2001   -0.8533   -0.0011 H       1  UNL1        0.0429
@<TRIPOS>BOND
     1     5     7    1
     2    14    15   ar
     3     3     4   ar
     4    15    16   ar
     5     7     8    1
     6    16    17   ar
     7    17    12   ar
     8    15    18    1
     9     7     9    2
    10    18    19    2
    11     4     5   ar
    12    18    20   am
    13     7    10    2
    14     1    21    1
    15     2     3   ar
    16    20    22    1
    17     8    11    1
    18    22    23    1
    19     5     6   ar
    20    23    24    1
    21    11    12    1
    22    22    25    1
    23     6     1   ar
    24    24    26    1
    25    12    13   ar
    26    25    27    1
    27     1     2   ar
    28    26    28    1
    29    27    28    1
    30    13    14   ar
    31    20    29    1
    32     2    30    1
    33     3    31    1
    34     4    32    1
    35     6    33    1
    36     8    34    1
    37    11    35    1
    38    11    36    1
    39    13    37    1
    40    14    38    1
    41    16    39    1
    42    17    40    1
    43    22    41    1
    44    23    42    1
    45    23    43    1
    46    24    44    1
    47    24    45    1
    48    25    46    1
    49    25    47    1
    50    26    48    1
    51    26    49    1
    52    27    50    1
    53    27    51    1
    54    28    52    1
    55    28    53    1
    56    29    54    1
    57    29    55    1
    58    29    56    1
@<TRIPOS>MOLECULE
BDB50317220
 56 60 0 0 0
SMALL
GASTEIGER

@<TRIPOS>ATOM
      1 C           1.3727   -0.9406    1.6743 C.3     1  UNL1       -0.0473
      2 C           1.3749   -0.9071    0.1280 C.3     1  UNL1       -0.0402
      3 C           0.2180   -0.0801    2.1993 C.3     1  UNL1       -0.0402
      4 C           1.5575    0.5434   -0.3658 C.3     1  UNL1       -0.0456
      5 C           0.4224    1.3688    1.7180 C.3     1  UNL1       -0.0456
      6 C           0.4061    1.4086    0.1650 C.3     1  UNL1       -0.0218
      7 C          -1.1198   -0.6387    1.6620 C.3     1  UNL1       -0.0456
      8 C          -1.1222   -0.5936    0.1142 C.3     1  UNL1       -0.0218
      9 C           0.0390   -1.4650   -0.4088 C.3     1  UNL1       -0.0456
     10 C          -0.9439    0.8787   -0.3789 C.3     1  UNL1        0.0288
     11 C          -3.1195    2.0789   -0.5046 C.2     1  UNL1        0.2305
     12 C          -4.4451    2.4407    0.2211 C.3     1  UNL1        0.0875
     13 O          -3.1264    1.9892   -1.7377 O.2     1  UNL1       -0.2741
     14 N          -4.3347    3.4778    1.3451 N.3     1  UNL1       -0.2873
     15 C          -3.7182    2.7640    2.4999 C.3     1  UNL1        0.0000
     16 C          -3.9551    1.2180    2.2121 C.3     1  UNL1       -0.0383
     17 C          -4.8670    1.1866    0.9423 C.3     1  UNL1       -0.0277
     18 C          -5.6526    4.1985    1.7928 C.3     1  UNL1        0.0248
     19 C          -6.7594    3.4666    2.6464 C.ar    1  UNL1       -0.0333
     20 C          -6.6956    2.1161    2.9388 C.ar    1  UNL1       -0.0561
     21 C          -7.6691    1.4481    3.6510 C.ar    1  UNL1       -0.0441
     22 C          -8.7572    2.1537    4.1143 C.ar    1  UNL1        0.0518
     23 C          -8.8518    3.5214    3.8592 C.ar    1  UNL1       -0.0441
     24 C          -7.8577    4.1752    3.1295 C.ar    1  UNL1       -0.0561
     25 C          -9.7606    1.4349    4.8039 C.1     1  UNL1        0.0992
     26 N         -10.5579    0.8299    5.3707 N.1     1  UNL1       -0.1909
     27 N          -1.9750    1.6815    0.1988 N.am    1  UNL1       -0.3106
     28 H           1.2463   -1.9505    2.0099 H       1  UNL1        0.0271
     29 H           2.2993   -0.5548    2.0416 H       1  UNL1        0.0271
     30 H           2.1835   -1.5091   -0.2309 H       1  UNL1        0.0301
     31 H           0.1957   -0.0992    3.2689 H       1  UNL1        0.0301
     32 H           2.4896    0.9294   -0.0048 H       1  UNL1        0.0271
     33 H           1.5521    0.5608   -1.4342 H       1  UNL1        0.0271
     34 H           1.3631    1.7341    2.0732 H       1  UNL1        0.0271
     35 H          -0.3671    1.9869    2.0990 H       1  UNL1        0.0271
     36 H           0.5265    2.4198   -0.1636 H       1  UNL1        0.0319
     37 H          -1.9311   -0.0450    2.0382 H       1  UNL1        0.0271
     38 H          -1.2400   -1.6506    1.9903 H       1  UNL1        0.0271
     39 H          -2.0539   -0.9674   -0.2562 H       1  UNL1        0.0319
     40 H           0.0485   -1.4444   -1.4769 H       1  UNL1        0.0271
     41 H          -0.0891   -2.4727   -0.0692 H       1  UNL1        0.0271
     42 H          -0.9798    0.9165   -1.4477 H       1  UNL1        0.0504
     43 H          -5.1719    2.7530   -0.5425 H       1  UNL1        0.0558
     44 H          -2.6829    2.9643    2.5344 H       1  UNL1        0.0427
     45 H          -4.2053    3.0368    3.3918 H       1  UNL1        0.0427
     46 H          -4.4576    0.7779    3.0213 H       1  UNL1        0.0278
     47 H          -3.0364    0.7497    2.0028 H       1  UNL1        0.0278
     48 H          -5.8662    1.2557    1.2213 H       1  UNL1        0.0285
     49 H          -4.6411    0.3491    0.3639 H       1  UNL1        0.0285
     50 H          -5.3615    5.1447    2.3405 H       1  UNL1        0.0476
     51 H          -6.1488    4.6185    0.8704 H       1  UNL1        0.0476
     52 H          -5.8476    1.5615    2.5947 H       1  UNL1        0.0621
     53 H          -7.5805    0.3988    3.8407 H       1  UNL1        0.0630
     54 H          -9.6922    4.0733    4.2253 H       1  UNL1        0.0630
     55 H          -7.9393    5.2252    2.9403 H       1  UNL1        0.0621
     56 H          -1.8916    1.9164    1.1051 H       1  UNL1        0.1490
@<TRIPOS>BOND
     1     6    10    1
     2    10     8    1
     3     8     9    1
     4    12    11    1
     5    11    13    2
     6    12    14    1
     7    14    15    1
     8    15    16    1
     9    16    17    1
    10    17    12    1
    11    14    18    1
    12     1     2    1
    13    18    19    1
    14     1     3    1
    15    19    20   ar
    16     2     4    1
    17    20    21   ar
    18     3     5    1
    19    21    22   ar
    20     4     6    1
    21    22    23   ar
    22     5     6    1
    23    23    24   ar
    24    24    19   ar
    25     7     8    1
    26    22    25    1
    27     3     7    1
    28    25    26    3
    29     2     9    1
    30    10    27    1
    31    27    11   am
    32     1    28    1
    33     1    29    1
    34     2    30    1
    35     3    31    1
    36     4    32    1
    37     4    33    1
    38     5    34    1
    39     5    35    1
    40     6    36    1
    41     7    37    1
    42     7    38    1
    43     8    39    1
    44     9    40    1
    45     9    41    1
    46    10    42    1
    47    12    43    1
    48    15    44    1
    49    15    45    1
    50    16    46    1
    51    16    47    1
    52    17    48    1
    53    17    49    1
    54    18    50    1
    55    18    51    1
    56    20    52    1
    57    21    53    1
    58    23    54    1
    59    24    55    1
    60    27    56    1
@<TRIPOS>MOLECULE
BDB50313286
 48 50 0 0 0
SMALL
GASTEIGER

@<TRIPOS>ATOM
      1 C          -0.5294    0.3617    1.5712 C.3     1  UNL1        0.0162
      2 N           0.0275   -0.9995    1.3121 N.3     1  UNL1       -0.2996
      3 C          -0.2216   -0.1639    0.1512 C.3     1  UNL1        0.0261
      4 C          -0.2972   -0.0347    0.1976 C.3     1  UNL1        0.0461
      5 C           0.9420    0.3984   -0.2725 C.3     1  UNL1       -0.0176
      6 C          -0.8923   -0.9213   -0.9702 C.3     1  UNL1        0.0365
      7 N          -1.2920    0.3934   -0.6194 N.3     1  UNL1       -0.1708
      8 C          -0.9253   -2.0665    1.6460 C.3     1  UNL1       -0.0124
      9 C          -3.7983    0.1158   -2.2490 C.ar    1  UNL1        0.1055
     10 C          -4.9742    0.6861   -2.7256 C.ar    1  UNL1       -0.0351
     11 C          -5.7999   -0.0343   -3.5802 C.ar    1  UNL1       -0.0567
     12 C          -5.4504   -1.3252   -3.9584 C.ar    1  UNL1       -0.0467
     13 C          -4.2759   -1.8961   -3.4828 C.ar    1  UNL1       -0.0567
     14 C          -3.4502   -1.1757   -2.6283 C.ar    1  UNL1       -0.0351
     15 S          -2.7884    1.0918   -1.1209 S.O2    1  UNL1        0.0612
     16 O          -2.4865    2.4196   -1.7893 O.2     1  UNL1       -0.1528
     17 O          -3.6125    1.3782    0.1196 O.2     1  UNL1       -0.1528
     18 C          -6.3687   -2.1240   -4.9081 C.3     1  UNL1       -0.0228
     19 C          -7.6429   -1.4171   -5.5180 C.3     1  UNL1       -0.0337
     20 C          -8.3452   -2.4364   -6.4333 C.3     1  UNL1       -0.0598
     21 C          -8.6576   -1.0047   -4.4216 C.3     1  UNL1       -0.0598
     22 C          -7.2557   -0.1967   -6.3896 C.3     1  UNL1       -0.0598
     23 H           0.0615    0.8775    2.3424 H       1  UNL1        0.0442
     24 H          -1.5956    0.2953    1.8334 H       1  UNL1        0.0442
     25 H          -0.8472    0.6968    0.4302 H       1  UNL1        0.0476
     26 H          -0.2354   -1.1329    0.1807 H       1  UNL1        0.0493
     27 H           1.7663    0.5833    0.4320 H       1  UNL1        0.0297
     28 H           1.1381    0.6428   -1.3269 H       1  UNL1        0.0297
     29 H          -0.6592   -0.9871   -2.0432 H       1  UNL1        0.0459
     30 H          -1.6326   -1.6601   -0.6296 H       1  UNL1        0.0459
     31 H          -1.8329   -1.9185    1.0423 H       1  UNL1        0.0391
     32 H          -1.1885   -1.9722    2.7099 H       1  UNL1        0.0391
     33 H          -0.4900   -3.0566    1.4459 H       1  UNL1        0.0391
     34 H          -5.2505    1.7078   -2.4259 H       1  UNL1        0.0637
     35 H          -6.7297    0.4168   -3.9571 H       1  UNL1        0.0621
     36 H          -4.0000   -2.9179   -3.7827 H       1  UNL1        0.0621
     37 H          -2.5207   -1.6276   -2.2517 H       1  UNL1        0.0637
     38 H          -6.7030   -3.0273   -4.3769 H       1  UNL1        0.0318
     39 H          -5.7537   -2.4941   -5.7416 H       1  UNL1        0.0318
     40 H          -8.6606   -3.3176   -5.8553 H       1  UNL1        0.0235
     41 H          -7.6753   -2.7444   -7.2495 H       1  UNL1        0.0235
     42 H          -9.2371   -1.9618   -6.8684 H       1  UNL1        0.0235
     43 H          -8.1545   -0.3199   -3.7231 H       1  UNL1        0.0235
     44 H          -8.9635   -1.9086   -3.8743 H       1  UNL1        0.0235
     45 H          -9.5351   -0.5153   -4.8694 H       1  UNL1        0.0235
     46 H          -6.6006   -0.5415   -7.2032 H       1  UNL1        0.0235
     47 H          -6.7014    0.5184   -5.7640 H       1  UNL1        0.0235
     48 H          -8.1555    0.2810   -6.8044 H       1  UNL1        0.0235
@<TRIPOS>BOND
     1    11    12   ar
     2     3     5    1
     3    12    13   ar
     4     3     6    1
     5    13    14   ar
     6    14     9   ar
     7     6     7    1
     8     9    15    1
     9    15     7    1
    10     7     4    1
    11    15    16    2
    12    15    17    2
    13     2     8    1
    14    12    18    1
    15     1     2    1
    16    18    19    1
    17     2     3    1
    18    19    20    1
    19     9    10   ar
    20    19    21    1
    21     1     4    1
    22    19    22    1
    23    10    11   ar
    24     4     5    1
    25     1    23    1
    26     1    24    1
    27     3    25    1
    28     4    26    1
    29     5    27    1
    30     5    28    1
    31     6    29    1
    32     6    30    1
    33     8    31    1
    34     8    32    1
    35     8    33    1
    36    10    34    1
    37    11    35    1
    38    13    36    1
    39    14    37    1
    40    18    38    1
    41    18    39    1
    42    20    40    1
    43    20    41    1
    44    20    42    1
    45    21    43    1
    46    21    44    1
    47    21    45    1
    48    22    46    1
    49    22    47    1
    50    22    48    1
@<TRIPOS>MOLECULE
BDB28369
 60 63 0 0 0
SMALL
GASTEIGER

@<TRIPOS>ATOM
      1 C           1.2656   -0.7227    0.2594 C.3     1  UNL1       -0.0340
      2 C           1.2645    0.7299   -0.2530 C.3     1  UNL1        0.0266
      3 C           0.0070    1.4566    0.2598 C.3     1  UNL1       -0.0340
      4 C          -1.2500    0.7306   -0.2534 C.3     1  UNL1       -0.0485
      5 C          -1.2492   -0.7219    0.2592 C.3     1  UNL1       -0.0395
      6 C           0.0084   -1.4485   -0.2538 C.3     1  UNL1       -0.0485
      7 C          -2.5366   -1.4648   -0.2768 C.3     1  UNL1       -0.0317
      8 N           2.4592    1.4197    0.2360 N.am    1  UNL1       -0.2914
      9 C          -2.7084   -1.5934   -1.8443 C.3     1  UNL1        0.0578
     10 C           2.6862    1.5506    1.6772 C.2     1  UNL1        0.2471
     11 C           3.3815    1.9526   -0.7531 C.3     1  UNL1        0.0267
     12 C           2.8849    2.5531   -2.0064 C.3     1  UNL1       -0.0326
     13 C           3.6532    1.2228   -2.0067 C.3     1  UNL1       -0.0326
     14 C           3.8698    2.2341    2.3174 C.ar    1  UNL1        0.0369
     15 O           1.8524    1.0689    2.4538 O.2     1  UNL1       -0.2700
     16 C           4.9678    2.8679    4.3669 C.ar    1  UNL1       -0.0549
     17 C           5.9912    3.4591    3.6358 C.ar    1  UNL1       -0.0077
     18 C           5.9554    3.4386    2.2466 C.ar    1  UNL1       -0.0549
     19 C           4.8957    2.8267    1.5882 C.ar    1  UNL1       -0.0493
     20 C           3.9080    2.2559    3.7085 C.ar    1  UNL1       -0.0493
     21 C           7.1160    2.7552    4.7473 C.3     1  UNL1        0.1828
     22 C           8.4606    3.4582    3.9027 C.3     1  UNL1       -0.0233
     23 C           7.0727    4.0544    5.9164 C.3     1  UNL1        0.4221
     24 O           7.0786    1.3801    5.1346 O.3     1  UNL1       -0.3758
     25 F           8.1818    4.6852    6.4398 F       1  UNL1       -0.1673
     26 F           7.0760    2.7378    6.3429 F       1  UNL1       -0.1673
     27 F           5.9414    4.7033    6.3786 F       1  UNL1       -0.1673
     28 C          -1.5356   -2.2751   -2.4333 C.1     1  UNL1        0.0692
     29 N          -0.6075   -2.7885   -2.8841 N.1     1  UNL1       -0.1960
     30 C          -3.4090   -0.5571   -2.6283 C.3     1  UNL1       -0.0331
     31 C          -4.0513   -1.9406   -2.3495 C.3     1  UNL1       -0.0331
     32 H           2.1634   -1.2409   -0.1087 H       1  UNL1        0.0283
     33 H           1.2659   -0.7247    1.3594 H       1  UNL1        0.0283
     34 H           1.2640    0.7298   -1.3530 H       1  UNL1        0.0501
     35 H           0.0061    2.4936   -0.1072 H       1  UNL1        0.0283
     36 H           0.0063    1.4568    1.3598 H       1  UNL1        0.0283
     37 H          -2.1483    1.2481    0.1144 H       1  UNL1        0.0269
     38 H          -1.2514    0.7305   -1.3534 H       1  UNL1        0.0269
     39 H          -1.2504   -0.7231    1.3592 H       1  UNL1        0.0301
     40 H           0.0070   -2.4856    0.1130 H       1  UNL1        0.0269
     41 H           0.0082   -1.4485   -1.3538 H       1  UNL1        0.0269
     42 H          -3.4233   -0.9529    0.1252 H       1  UNL1        0.0283
     43 H          -2.5556   -2.4762    0.1554 H       1  UNL1        0.0283
     44 H           4.0158    2.3187    0.0677 H       1  UNL1        0.0501
     45 H           3.5240    3.3789   -2.3522 H       1  UNL1        0.0284
     46 H           1.8065    2.3872   -2.1461 H       1  UNL1        0.0284
     47 H           2.9704    0.3719   -2.1475 H       1  UNL1        0.0284
     48 H           4.6881    1.3637   -2.3519 H       1  UNL1        0.0284
     49 H           4.9966    2.8843    5.4664 H       1  UNL1        0.0621
     50 H           6.7658    3.9067    1.6684 H       1  UNL1        0.0621
     51 H           4.8679    2.8108    0.4886 H       1  UNL1        0.0625
     52 H           3.0982    1.7881    4.2876 H       1  UNL1        0.0625
     53 H           8.5879    3.5807    2.8170 H       1  UNL1        0.0263
     54 H           8.4429    2.3879    4.1556 H       1  UNL1        0.0263
     55 H           9.3075    3.9343    4.4187 H       1  UNL1        0.0263
     56 H           6.3445    5.9524    4.2260 H       1  UNL1        0.2110
     57 H          -3.0394   -0.4975   -3.6627 H       1  UNL1        0.0281
     58 H          -3.8536    0.2185   -1.9874 H       1  UNL1        0.0281
     59 H          -4.8218   -1.8650   -1.5680 H       1  UNL1        0.0281
     60 H          -4.0061   -2.5814   -3.2424 H       1  UNL1        0.0281
@<TRIPOS>BOND
     1     1     2    1
     2     1     6    1
     3     2     3    1
     4     3     4    1
     5     4     5    1
     6     5     6    1
     7     5     7    1
     8     2     8    1
     9     9     7    1
    10     8    10   am
    11     8    11    1
    12    12    11    1
    13    11    13    1
    14    13    12    1
    15    10    14    1
    16    10    15    2
    17    19    14   ar
    18    14    20   ar
    19    16    17   ar
    20    16    20   ar
    21    17    18   ar
    22    18    19   ar
    23    17    21    1
    24    21    22    1
    25    21    23    1
    26    21    24    1
    27    23    25    1
    28    23    26    1
    29    23    27    1
    30     9    28    1
    31    28    29    3
    32     9    30    1
    33     9    31    1
    34    30    31    1
    35     1    32    1
    36     1    33    1
    37     2    34    1
    38     3    35    1
    39     3    36    1
    40     4    37    1
    41     4    38    1
    42     5    39    1
    43     6    40    1
    44     6    41    1
    45     7    42    1
    46     7    43    1
    47    11    44    1
    48    12    45    1
    49    12    46    1
    50    13    47    1
    51    13    48    1
    52    16    49    1
    53    18    50    1
    54    19    51    1
    55    20    52    1
    56    22    53    1
    57    22    54    1
    58    22    55    1
    59    24    56    1
    60    30    57    1
    61    30    58    1
    62    31    59    1
    63    31    60    1
@<TRIPOS>MOLECULE
BDB50306416
 59 64 0 0 0
SMALL
GASTEIGER

@<TRIPOS>ATOM
      1 C           1.2467   -0.7244    0.2771 C.3     1  UNL1       -0.0054
      2 C           2.5593   -1.4425   -0.2318 C.3     1  UNL1       -0.0200
      3 C           1.2272   -0.8191    1.8583 C.3     1  UNL1       -0.0200
      4 C          -1.3478    6.7275    2.6405 C.3     1  UNL1       -0.0473
      5 C           0.1534    7.0512    2.7933 C.3     1  UNL1       -0.0402
      6 C          -1.5098    5.3320    2.0020 C.3     1  UNL1       -0.0402
      7 C           0.8266    7.0412    1.4044 C.3     1  UNL1       -0.0456
      8 C          -0.8379    5.3203    0.6123 C.3     1  UNL1       -0.0456
      9 C           0.6630    5.6453    0.7669 C.3     1  UNL1       -0.0218
     10 C          -0.8453    4.2718    2.9058 C.3     1  UNL1       -0.0456
     11 C           0.6556    4.5976    3.0585 C.3     1  UNL1       -0.0218
     12 C           0.8193    5.9926    3.6979 C.3     1  UNL1       -0.0456
     13 C           1.3267    4.5865    1.6703 C.3     1  UNL1        0.0302
     14 N           1.2474    3.2721    1.0691 N.am    1  UNL1       -0.2959
     15 C           0.0153    2.6477    0.7798 C.2     1  UNL1        0.3025
     16 N           0.0089    1.3798    0.2009 N.am    1  UNL1       -0.2851
     17 O          -1.0599    3.2051    1.0312 O.2     1  UNL1       -0.2526
     18 C           1.2546    0.7493   -0.1578 C.3     1  UNL1        0.0224
     19 C           0.0078   -1.4193   -0.3042 C.3     1  UNL1       -0.0439
     20 C          -1.2417   -0.7237    0.2560 C.3     1  UNL1       -0.0365
     21 C          -1.2446    0.7623   -0.1595 C.3     1  UNL1        0.0162
     22 C           2.4799   -1.5419    2.1514 C.ar    1  UNL1       -0.0436
     23 C           3.1956   -1.8789    1.0290 C.ar    1  UNL1       -0.0436
     24 C           4.3974   -2.5667    1.1224 C.ar    1  UNL1       -0.0583
     25 C           4.8625   -2.9084    2.3890 C.ar    1  UNL1       -0.0615
     26 C           4.1361   -2.5647    3.5289 C.ar    1  UNL1       -0.0615
     27 C           2.9322   -1.8749    3.4204 C.ar    1  UNL1       -0.0583
     28 H           3.2055   -0.7255   -0.7593 H       1  UNL1        0.0319
     29 H           2.2997   -2.3132   -0.8519 H       1  UNL1        0.0319
     30 H           1.2517    0.1888    2.2983 H       1  UNL1        0.0319
     31 H           0.3581   -1.4050    2.1921 H       1  UNL1        0.0319
     32 H          -1.8274    6.7352    3.6304 H       1  UNL1        0.0271
     33 H          -1.8232    7.4820    1.9965 H       1  UNL1        0.0271
     34 H           0.2694    8.0459    3.2484 H       1  UNL1        0.0301
     35 H          -2.5797    5.1006    1.8928 H       1  UNL1        0.0301
     36 H           0.3513    7.7960    0.7606 H       1  UNL1        0.0271
     37 H           1.8968    7.2713    1.5124 H       1  UNL1        0.0271
     38 H          -1.3117    6.0756   -0.0319 H       1  UNL1        0.0271
     39 H          -0.9524    4.3252    0.1576 H       1  UNL1        0.0271
     40 H           1.1430    5.6372   -0.2228 H       1  UNL1        0.0319
     41 H          -0.9605    3.2774    2.4499 H       1  UNL1        0.0271
     42 H          -1.3262    4.2805    3.8951 H       1  UNL1        0.0271
     43 H           1.1304    3.8427    3.7024 H       1  UNL1        0.0319
     44 H           1.8891    6.2245    3.8066 H       1  UNL1        0.0271
     45 H           0.3387    6.0016    4.6873 H       1  UNL1        0.0271
     46 H           2.3920    4.8344    1.7870 H       1  UNL1        0.0504
     47 H           2.1211    2.7749    0.8445 H       1  UNL1        0.1505
     48 H           2.0854    1.2715    0.3393 H       1  UNL1        0.0471
     49 H           1.3922    0.8071   -1.2477 H       1  UNL1        0.0471
     50 H           0.0039   -2.4787   -0.0083 H       1  UNL1        0.0272
     51 H           0.0168   -1.3346   -1.4009 H       1  UNL1        0.0272
     52 H          -2.1425   -1.2154   -0.1398 H       1  UNL1        0.0281
     53 H          -1.2406   -0.7958    1.3536 H       1  UNL1        0.0281
     54 H          -2.0681    1.2823    0.3518 H       1  UNL1        0.0465
     55 H          -1.3898    0.8364   -1.2473 H       1  UNL1        0.0465
     56 H           4.9668   -2.8344    0.2202 H       1  UNL1        0.0620
     57 H           5.8117   -3.4546    2.4919 H       1  UNL1        0.0618
     58 H           4.5181   -2.8414    4.5227 H       1  UNL1        0.0618
     59 H           2.3551   -1.6010    4.3160 H       1  UNL1        0.0620
@<TRIPOS>BOND
     1     9    13    1
     2    13    11    1
     3    11    12    1
     4     1     2    1
     5    13    14    1
     6    14    15   am
     7     2    23    1
     8    15    16   am
     9    22     3    1
    10    15    17    2
    11    16    18    1
    12     3     1    1
    13     4     5    1
    14     4     6    1
    15     5     7    1
    16    16    21    1
    17    18     1    1
    18     1    19    1
    19    19    20    1
    20    20    21    1
    21     6     8    1
    22     7     9    1
    23    22    23   ar
    24     8     9    1
    25    23    24   ar
    26    10    11    1
    27    24    25   ar
    28     6    10    1
    29    25    26   ar
    30     5    12    1
    31    26    27   ar
    32    27    22   ar
    33     2    28    1
    34     2    29    1
    35     3    30    1
    36     3    31    1
    37     4    32    1
    38     4    33    1
    39     5    34    1
    40     6    35    1
    41     7    36    1
    42     7    37    1
    43     8    38    1
    44     8    39    1
    45     9    40    1
    46    10    41    1
    47    10    42    1
    48    11    43    1
    49    12    44    1
    50    12    45    1
    51    13    46    1
    52    14    47    1
    53    18    48    1
    54    18    49    1
    55    19    50    1
    56    19    51    1
    57    20    52    1
    58    20    53    1
    59    21    54    1
    60    21    55    1
    61    24    56    1
    62    25    57    1
    63    26    58    1
    64    27    59    1
@<TRIPOS>MOLECULE
BDB50260967
 51 55 0 0 0
SMALL
GASTEIGER

@<TRIPOS>ATOM
      1 C           6.5915   -1.4312    1.3487 C.3     1  UNL1       -0.0364
      2 C           6.4463   -2.9702    1.5406 C.3     1  UNL1       -0.0507
      3 C           6.7289   -3.0389    0.0102 C.3     1  UNL1       -0.0364
      4 C           6.0046   -1.7241   -0.0015 C.3     1  UNL1        0.0554
      5 C           7.3715    0.9827   -3.0363 C.ar    1  UNL1        0.0410
      6 C           6.7150    1.4737   -1.9140 C.ar    1  UNL1       -0.0431
      7 C           6.2547    0.5964   -0.9395 C.ar    1  UNL1       -0.0562
      8 C           6.4510   -0.7718   -1.0879 C.ar    1  UNL1       -0.0338
      9 C           7.1078   -1.2624   -2.2103 C.ar    1  UNL1       -0.0562
     10 C           7.5680   -0.3852   -3.1847 C.ar    1  UNL1       -0.0431
     11 CL          7.9403    2.0664   -4.2405 Cl      1  UNL1       -0.0835
     12 C           4.5085   -1.8518    0.0002 C.ar    1  UNL1        0.1440
     13 N           3.6506   -0.8510    0.0002 N.ar    1  UNL1       -0.3132
     14 C           2.4650   -1.4039    0.0000 C.ar    1  UNL1        0.1654
     15 N           2.5833   -2.7174   -0.0002 N.ar    1  UNL1       -0.1291
     16 N           3.8270   -2.9938   -0.0001 N.ar    1  UNL1       -0.1331
     17 C           3.9613    0.5440    0.0003 C.3     1  UNL1        0.0150
     18 C           1.1971   -0.6717   -0.0001 C.ar    1  UNL1        0.0377
     19 C           1.1971    0.7180    0.0001 C.ar    1  UNL1       -0.0477
     20 C          -0.0069    1.4120    0.0001 C.ar    1  UNL1       -0.0370
     21 C          -1.2102    0.7166   -0.0001 C.ar    1  UNL1        0.0494
     22 C          -1.2101   -0.6732   -0.0003 C.ar    1  UNL1       -0.0188
     23 C          -0.0060   -1.3670   -0.0003 C.ar    1  UNL1        0.0536
     24 N          -2.4252    1.4179   -0.0001 N.ar    1  UNL1       -0.2962
     25 C          -2.5352    2.7271    0.0000 C.ar    1  UNL1        0.0298
     26 C          -3.9049    2.9791   -0.0001 C.ar    1  UNL1        0.0464
     27 N          -4.5397    1.8091   -0.0003 N.ar    1  UNL1       -0.2321
     28 C          -3.6133    0.8597   -0.0003 C.ar    1  UNL1        0.2193
     29 CL         -0.0038   -3.0840   -0.0005 Cl      1  UNL1       -0.0827
     30 C          -3.8893   -0.6106   -0.0001 C.3     1  UNL1        0.4509
     31 F          -5.2493   -0.8287    0.0862 F       1  UNL1       -0.1632
     32 F          -3.2562   -1.1963    1.0769 F       1  UNL1       -0.1632
     33 F          -3.4052   -1.1646   -1.1668 F       1  UNL1       -0.1632
     34 H           5.8887   -0.8804    1.9911 H       1  UNL1        0.0278
     35 H           7.6486   -1.1349    1.2803 H       1  UNL1        0.0278
     36 H           7.2826   -3.3842    2.1230 H       1  UNL1        0.0266
     37 H           5.4083   -3.2522    1.7708 H       1  UNL1        0.0266
     38 H           6.1407   -3.8341   -0.4710 H       1  UNL1        0.0278
     39 H           7.8009   -2.9172   -0.2047 H       1  UNL1        0.0278
     40 H           6.5598    2.5564   -1.7972 H       1  UNL1        0.0632
     41 H           5.7353    0.9844   -0.0509 H       1  UNL1        0.0621
     42 H           7.2633   -2.3451   -2.3272 H       1  UNL1        0.0621
     43 H           8.0877   -0.7731   -4.0732 H       1  UNL1        0.0632
     44 H           4.6186    0.6377   -0.8767 H       1  UNL1        0.0457
     45 H           4.6185    0.6376    0.8775 H       1  UNL1        0.0457
     46 H           3.1124    1.2436    0.0003 H       1  UNL1        0.0457
     47 H           2.1496    1.2684    0.0003 H       1  UNL1        0.0626
     48 H          -0.0075    2.5120    0.0002 H       1  UNL1        0.0638
     49 H          -2.1625   -1.2236   -0.0005 H       1  UNL1        0.0653
     50 H          -1.7202    3.4658    0.0002 H       1  UNL1        0.0829
     51 H          -4.3793    3.9716    0.0000 H       1  UNL1        0.0845
@<TRIPOS>BOND
     1    15    16   ar
     2    16    12   ar
     3     4     1    1
     4    13    17    1
     5     8     9   ar
     6    18    19   ar
     7     9    10   ar
     8    19    20   ar
     9    10     5   ar
    10    20    21   ar
    11     1     2    1
    12    21    22   ar
    13     5    11    1
    14    22    23   ar
    15    23    18   ar
    16    14    18    1
    17    24    25   ar
    18     8     4    1
    19     5     6   ar
    20     4    12    1
    21    12    13   ar
    22     2     3    1
    23    25    26   ar
    24    26    27   ar
    25    27    28   ar
    26    28    24   ar
    27    21    24    1
    28     6     7   ar
    29    23    29    1
    30     3     4    1
    31    28    30    1
    32     7     8   ar
    33    30    31    1
    34    13    14   ar
    35    30    32    1
    36    14    15   ar
    37    30    33    1
    38     1    34    1
    39     1    35    1
    40     2    36    1
    41     2    37    1
    42     3    38    1
    43     3    39    1
    44     6    40    1
    45     7    41    1
    46     9    42    1
    47    10    43    1
    48    17    44    1
    49    17    45    1
    50    17    46    1
    51    19    47    1
    52    20    48    1
    53    22    49    1
    54    25    50    1
    55    26    51    1
@<TRIPOS>MOLECULE
BDB50239407
 44 47 0 0 0
SMALL
GASTEIGER

@<TRIPOS>ATOM
      1 C           0.8521    5.0655    1.2518 C.3     1  UNL1       -0.0364
      2 C           2.2985    5.2603    0.7072 C.3     1  UNL1       -0.0507
      3 C           1.9834    4.0042   -0.1585 C.3     1  UNL1       -0.0364
      4 C           1.1565    3.6122    1.0311 C.3     1  UNL1        0.0554
      5 C           1.8057    0.0192    0.5060 C.3     1  UNL1       -0.0349
      6 C           1.1870    1.0289   -0.5002 C.3     1  UNL1        0.0261
      7 N          -0.0271    1.6319    0.0416 N.ar    1  UNL1       -0.3141
      8 C           1.2484   -1.4376    0.3795 C.3     1  UNL1       -0.0514
      9 C          -0.2909   -1.5189    0.4636 C.3     1  UNL1       -0.0526
     10 C          -0.9082   -1.1507   -0.8974 C.3     1  UNL1       -0.0462
     11 C          -1.9018   -0.0052   -0.6982 C.3     1  UNL1        0.0074
     12 C          -1.2980    1.2487   -0.0552 C.ar    1  UNL1        0.1335
     13 N          -2.0523    2.1793    0.5238 N.ar    1  UNL1       -0.1343
     14 N          -1.3026    3.1024    0.9712 N.ar    1  UNL1       -0.1334
     15 C          -0.0470    2.7838    0.6862 C.ar    1  UNL1        0.1440
     16 C           1.9469    2.9607    2.1439 C.ar    1  UNL1       -0.0338
     17 C           2.3700    3.7219    3.2273 C.ar    1  UNL1       -0.0562
     18 C           3.1384    3.1393    4.2278 C.ar    1  UNL1       -0.0431
     19 C           3.4837    1.7956    4.1446 C.ar    1  UNL1        0.0410
     20 C           3.0611    1.0342    3.0614 C.ar    1  UNL1       -0.0431
     21 C           2.2926    1.6168    2.0608 C.ar    1  UNL1       -0.0562
     22 CL          4.4332    1.0761    5.3811 Cl      1  UNL1       -0.0835
     23 H           0.7911    5.3143    2.3215 H       1  UNL1        0.0278
     24 H           0.1028    5.4399    0.5388 H       1  UNL1        0.0278
     25 H           2.3772    6.1661    0.0881 H       1  UNL1        0.0266
     26 H           3.0528    5.0393    1.4768 H       1  UNL1        0.0266
     27 H           2.8703    3.3631   -0.2702 H       1  UNL1        0.0278
     28 H           1.3582    4.2633   -1.0257 H       1  UNL1        0.0278
     29 H           2.8955   -0.0050    0.3584 H       1  UNL1        0.0282
     30 H           1.6228    0.3800    1.5289 H       1  UNL1        0.0282
     31 H           1.9189    1.8212   -0.7162 H       1  UNL1        0.0493
     32 H           0.9439    0.5066   -1.4373 H       1  UNL1        0.0493
     33 H           1.6807   -2.0564    1.1797 H       1  UNL1        0.0266
     34 H           1.5744   -1.8617   -0.5816 H       1  UNL1        0.0266
     35 H          -0.5890   -2.5424    0.7350 H       1  UNL1        0.0265
     36 H          -0.6539   -0.8189    1.2305 H       1  UNL1        0.0265
     37 H          -1.4323   -2.0247   -1.3116 H       1  UNL1        0.0269
     38 H          -0.1127   -0.8335   -1.5877 H       1  UNL1        0.0269
     39 H          -2.7311   -0.3602   -0.0688 H       1  UNL1        0.0344
     40 H          -2.3268    0.2685   -1.6751 H       1  UNL1        0.0344
     41 H           2.0966    4.7853    3.2926 H       1  UNL1        0.0621
     42 H           3.4732    3.7413    5.0854 H       1  UNL1        0.0632
     43 H           3.3347   -0.0292    2.9962 H       1  UNL1        0.0632
     44 H           1.9580    1.0147    1.2032 H       1  UNL1        0.0621
@<TRIPOS>BOND
     1    10    11    1
     2    11    12    1
     3    12     7   ar
     4     3     4    1
     5     4     1    1
     6    12    13   ar
     7    13    14   ar
     8    14    15   ar
     9    15     7   ar
    10    15     4    1
    11     1     2    1
    12     4    16    1
    13     2     3    1
    14    16    17   ar
    15     5     6    1
    16    17    18   ar
    17     6     7    1
    18    18    19   ar
    19     5     8    1
    20    19    20   ar
    21     8     9    1
    22    20    21   ar
    23    21    16   ar
    24     9    10    1
    25    19    22    1
    26     1    23    1
    27     1    24    1
    28     2    25    1
    29     2    26    1
    30     3    27    1
    31     3    28    1
    32     5    29    1
    33     5    30    1
    34     6    31    1
    35     6    32    1
    36     8    33    1
    37     8    34    1
    38     9    35    1
    39     9    36    1
    40    10    37    1
    41    10    38    1
    42    11    39    1
    43    11    40    1
    44    17    41    1
    45    18    42    1
    46    20    43    1
    47    21    44    1
@<TRIPOS>MOLECULE
BDB29839
 48 50 0 0 0
SMALL
GASTEIGER

@<TRIPOS>ATOM
      1 C           4.4714   -3.8585   -0.4779 C.3     1  UNL1        0.0664
      2 C           3.5046   -3.6028    0.7475 C.2     1  UNL1        0.2256
      3 N           2.6251   -2.4642    0.8529 N.am    1  UNL1       -0.3002
      4 O           3.4774   -4.3904    1.6983 O.2     1  UNL1       -0.2747
      5 C           2.5617   -1.4453   -0.1588 C.3     1  UNL1        0.0204
      6 C           1.7857   -2.2380    2.0048 C.3     1  UNL1        0.0153
      7 C           1.3685   -0.7660    1.7978 C.3     1  UNL1       -0.0300
      8 C           1.2934   -0.6954    0.2683 C.3     1  UNL1       -0.0120
      9 C           1.2612    0.7493   -0.2615 C.3     1  UNL1       -0.0459
     10 C           0.0522   -1.4706   -0.2180 C.3     1  UNL1       -0.0459
     11 C          -1.2254   -0.7588    0.2725 C.3     1  UNL1       -0.0525
     12 C          -1.2557    0.6832   -0.2740 C.3     1  UNL1       -0.0530
     13 C          -0.0179    1.4505    0.2340 C.3     1  UNL1       -0.0525
     14 C           5.3125   -5.1481   -0.4067 C.ar    1  UNL1       -0.0330
     15 C           5.2967   -5.9972    0.6957 C.ar    1  UNL1       -0.0576
     16 C           6.0923   -7.1359    0.7088 C.ar    1  UNL1       -0.0615
     17 C           6.9056   -7.4282   -0.3804 C.ar    1  UNL1       -0.0617
     18 C           6.9229   -6.5818   -1.4819 C.ar    1  UNL1       -0.0615
     19 C           6.1266   -5.4420   -1.4950 C.ar    1  UNL1       -0.0576
     20 C           3.6605   -3.9615   -1.7944 C.3     1  UNL1       -0.0474
     21 C           5.4865   -2.6960   -0.6014 C.3     1  UNL1       -0.0474
     22 H           2.4243   -1.8927   -1.1543 H       1  UNL1        0.0470
     23 H           3.4371   -0.7819   -0.0977 H       1  UNL1        0.0470
     24 H           2.3653   -2.3426    2.9339 H       1  UNL1        0.0465
     25 H           0.9020   -2.8924    1.9742 H       1  UNL1        0.0465
     26 H           0.3784   -0.5811    2.2401 H       1  UNL1        0.0286
     27 H           2.1477   -0.0878    2.1758 H       1  UNL1        0.0286
     28 H           2.1432    1.2944    0.1059 H       1  UNL1        0.0271
     29 H           1.2694    0.7378   -1.3614 H       1  UNL1        0.0271
     30 H           0.0776   -2.4944    0.1835 H       1  UNL1        0.0271
     31 H           0.0509   -1.5083   -1.3173 H       1  UNL1        0.0271
     32 H          -2.1101   -1.3050   -0.0867 H       1  UNL1        0.0265
     33 H          -1.2327   -0.7333    1.3722 H       1  UNL1        0.0265
     34 H          -2.1683    1.1894    0.0739 H       1  UNL1        0.0265
     35 H          -1.2458    0.6591   -1.3737 H       1  UNL1        0.0265
     36 H          -0.0439    2.4813   -0.1489 H       1  UNL1        0.0265
     37 H          -0.0239    1.4679    1.3338 H       1  UNL1        0.0265
     38 H           4.6535   -5.7664    1.5577 H       1  UNL1        0.0621
     39 H           6.0789   -7.8063    1.5808 H       1  UNL1        0.0618
     40 H           7.5356   -8.3299   -0.3699 H       1  UNL1        0.0618
     41 H           7.5664   -6.8133   -2.3435 H       1  UNL1        0.0618
     42 H           6.1406   -4.7720   -2.3674 H       1  UNL1        0.0621
     43 H           3.1089   -3.0229   -1.9516 H       1  UNL1        0.0243
     44 H           2.9445   -4.7926   -1.7119 H       1  UNL1        0.0243
     45 H           4.3401   -4.1393   -2.6408 H       1  UNL1        0.0243
     46 H           6.0774   -2.6292    0.3240 H       1  UNL1        0.0243
     47 H           4.9422   -1.7524   -0.7546 H       1  UNL1        0.0243
     48 H           6.1569   -2.8775   -1.4544 H       1  UNL1        0.0243
@<TRIPOS>BOND
     1     1     2    1
     2     2     3   am
     3     2     4    2
     4     5     3    1
     5     3     6    1
     6     5     8    1
     7     6     7    1
     8     7     8    1
     9     9     8    1
    10     8    10    1
    11     9    13    1
    12    10    11    1
    13    11    12    1
    14    12    13    1
    15     1    14    1
    16    19    14   ar
    17    15    14   ar
    18    15    16   ar
    19    16    17   ar
    20    17    18   ar
    21    18    19   ar
    22    21     1    1
    23     1    20    1
    24     5    22    1
    25     5    23    1
    26     6    24    1
    27     6    25    1
    28     7    26    1
    29     7    27    1
    30     9    28    1
    31     9    29    1
    32    10    30    1
    33    10    31    1
    34    11    32    1
    35    11    33    1
    36    12    34    1
    37    12    35    1
    38    13    36    1
    39    13    37    1
    40    15    38    1
    41    16    39    1
    42    17    40    1
    43    18    41    1
    44    19    42    1
    45    20    43    1
    46    20    44    1
    47    20    45    1
    48    21    46    1
    49    21    47    1
    50    21    48    1
@<TRIPOS>MOLECULE
BDB50263346
 48 51 0 0 0
SMALL
GASTEIGER

@<TRIPOS>ATOM
      1 C           1.8914   -4.5785    0.1046 C.ar    1  UNL1       -0.0190
      2 C           3.2605   -4.3559    0.0658 C.ar    1  UNL1        0.1300
      3 C           3.7325   -3.0462    0.0387 C.ar    1  UNL1       -0.0190
      4 C           2.8442   -1.9749    0.0459 C.ar    1  UNL1       -0.0476
      5 C           1.4728   -2.1981    0.0739 C.ar    1  UNL1        0.0195
      6 C           1.0083   -3.5090    0.1078 C.ar    1  UNL1       -0.0476
      7 O           4.1196   -5.4867    0.0533 O.3     1  UNL1       -0.4057
      8 C           5.5348   -5.1957    0.0076 C.3     1  UNL1        0.5752
      9 F           6.2187   -6.3939   -0.0032 F       1  UNL1       -0.1328
     10 F           5.8546   -4.5002   -1.1453 F       1  UNL1       -0.1328
     11 F           5.9227   -4.4807    1.1263 F       1  UNL1       -0.1328
     12 C           0.5381   -1.0206    0.0667 C.ar    1  UNL1        0.1645
     13 N          -0.7826   -1.0206   -0.0776 N.ar    1  UNL1       -0.3076
     14 C          -1.1579    0.2642   -0.0323 C.ar    1  UNL1        0.1445
     15 N          -0.0579    0.9956    0.1272 N.ar    1  UNL1       -0.1331
     16 N           0.9534    0.2334    0.1859 N.ar    1  UNL1       -0.1291
     17 C          -1.5676   -2.2317   -0.3905 C.3     1  UNL1        0.0320
     18 C          -2.5984   -2.7798    0.6281 C.3     1  UNL1       -0.0444
     19 C          -1.8078   -2.5460   -1.8808 C.3     1  UNL1       -0.0444
     20 C          -2.7466    2.4327   -0.0701 C.ar    1  UNL1       -0.0337
     21 C          -1.6667    3.2834    0.1377 C.ar    1  UNL1       -0.0549
     22 C          -1.8725    4.6547    0.2439 C.ar    1  UNL1       -0.0262
     23 C          -3.1570    5.1775    0.1457 C.ar    1  UNL1        0.1234
     24 C          -4.2372    4.3287   -0.0568 C.ar    1  UNL1       -0.0262
     25 C          -4.0295    2.9599   -0.1639 C.ar    1  UNL1       -0.0549
     26 F          -3.3561    6.5002    0.2443 F       1  UNL1       -0.2055
     27 C          -3.7718    0.1566   -0.7641 C.3     1  UNL1       -0.0352
     28 C          -2.5742    0.9333   -0.1877 C.3     1  UNL1        0.0555
     29 C          -3.6147    0.3095    0.7583 C.3     1  UNL1       -0.0352
     30 H           1.5152   -5.5799    0.1322 H       1  UNL1        0.0654
     31 H           4.7861   -2.8620    0.0122 H       1  UNL1        0.0654
     32 H           3.2195   -0.9730    0.0298 H       1  UNL1        0.0626
     33 H          -0.0450   -3.6947    0.1368 H       1  UNL1        0.0626
     34 H          -0.7984   -2.9292   -0.1323 H       1  UNL1        0.0523
     35 H          -3.2574   -1.9272    0.8208 H       1  UNL1        0.0249
     36 H          -2.0153   -2.9191    1.5440 H       1  UNL1        0.0249
     37 H          -3.0706   -3.5933    0.3234 H       1  UNL1        0.0249
     38 H          -0.8203   -2.6058   -2.3298 H       1  UNL1        0.0249
     39 H          -2.2898   -1.6632   -2.2916 H       1  UNL1        0.0249
     40 H          -2.3523   -3.3893   -2.0183 H       1  UNL1        0.0249
     41 H          -0.6775    2.8830    0.2158 H       1  UNL1        0.0621
     42 H          -1.0404    5.3087    0.4016 H       1  UNL1        0.0646
     43 H          -5.2270    4.7284   -0.1300 H       1  UNL1        0.0646
     44 H          -4.8624    2.3065   -0.3196 H       1  UNL1        0.0621
     45 H          -3.4696   -0.6935   -0.9907 H       1  UNL1        0.0278
     46 H          -4.4031    0.7842   -1.0441 H       1  UNL1        0.0278
     47 H          -4.1882    0.9898    1.0301 H       1  UNL1        0.0278
     48 H          -3.2546   -0.4878    1.0834 H       1  UNL1        0.0278
@<TRIPOS>BOND
     1    13    14   ar
     2    14    15   ar
     3    15    16   ar
     4    16    12   ar
     5     5    12    1
     6     7     8    1
     7    13    17    1
     8    17    18    1
     9     8     9    1
    10    17    19    1
    11    14    28    1
    12     4     5   ar
    13    28    20    1
    14     8    10    1
    15    20    21   ar
    16     2     3   ar
    17    21    22   ar
    18     8    11    1
    19    22    23   ar
    20    12    13   ar
    21    23    24   ar
    22     5     6   ar
    23    24    25   ar
    24    25    20   ar
    25     6     1   ar
    26    23    26    1
    27    28    27    1
    28    29    28    1
    29    27    29    1
    30     1     2   ar
    31     2     7    1
    32     3     4   ar
    33     1    30    1
    34     3    31    1
    35     4    32    1
    36     6    33    1
    37    17    34    1
    38    18    35    1
    39    18    36    1
    40    18    37    1
    41    19    38    1
    42    19    39    1
    43    19    40    1
    44    21    41    1
    45    22    42    1
    46    24    43    1
    47    25    44    1
    48    27    45    1
    49    27    46    1
    50    29    47    1
    51    29    48    1
@<TRIPOS>MOLECULE
BDB50174295
 65 70 0 0 0
SMALL
GASTEIGER

@<TRIPOS>ATOM
      1 C          -4.6106   -3.8199   -1.0398 C.ar    1  UNL1        0.0226
      2 C          -5.9815   -4.0084   -1.0122 C.ar    1  UNL1       -0.0491
      3 C          -6.5400   -5.1112   -1.6467 C.ar    1  UNL1       -0.0359
      4 C          -5.7257   -6.0233   -2.3062 C.ar    1  UNL1        0.0976
      5 C          -4.3487   -5.8351   -2.3324 C.ar    1  UNL1       -0.0359
      6 C          -3.7897   -4.7328   -1.7003 C.ar    1  UNL1       -0.0491
      7 C          -2.6699   -1.2735    0.3059 C.ar    1  UNL1        0.2338
      8 O          -3.8490   -0.8924    0.6790 O.2     1  UNL1       -0.3371
      9 N          -4.6755   -1.7154    0.2698 N.ar    1  UNL1       -0.0561
     10 C          -4.0178   -2.6666   -0.3889 C.ar    1  UNL1        0.2021
     11 N          -2.7329   -2.4019   -0.3748 N.ar    1  UNL1       -0.1909
     12 C           2.3349    1.4575   -0.4960 C.ar    1  UNL1        0.1397
     13 C           0.8463   -0.8270   -1.1471 C.3     1  UNL1       -0.0395
     14 C           0.9410    0.8413   -0.8085 C.3     1  UNL1        0.0307
     15 C          -0.0616   -1.5926    0.2250 C.3     1  UNL1       -0.0380
     16 C           0.5443    0.4429    0.2416 C.3     1  UNL1       -0.0395
     17 C          -0.3866    1.8692   -0.5062 C.3     1  UNL1       -0.0395
     18 C          -1.3876   -0.5912    0.5740 C.3     1  UNL1        0.0496
     19 C          -1.0426   -0.1610   -0.4503 C.3     1  UNL1       -0.0380
     20 C          -1.4005    1.0971    0.8284 C.3     1  UNL1       -0.0380
     21 N           3.4575    0.8536   -0.1026 N.ar    1  UNL1       -0.3135
     22 N           2.5560    2.7671   -0.5166 N.ar    1  UNL1       -0.1335
     23 N           3.7406    2.9824   -0.1242 N.ar    1  UNL1       -0.1291
     24 C           4.3145    1.8182    0.1937 C.ar    1  UNL1        0.1645
     25 C           3.8363   -0.4899   -0.4597 C.3     1  UNL1        0.0150
     26 C           5.7381    1.7943    0.7707 C.ar    1  UNL1        0.0309
     27 C           6.3046    0.8275    1.6435 C.ar    1  UNL1        0.0655
     28 C           7.6036    1.0050    2.0976 C.ar    1  UNL1       -0.0494
     29 C           8.3579    2.1146    1.7471 C.ar    1  UNL1       -0.0612
     30 C           7.8042    3.0684    0.9119 C.ar    1  UNL1       -0.0611
     31 C           6.5093    2.8917    0.4335 C.ar    1  UNL1       -0.0505
     32 C           5.6054   -0.3871    2.2134 C.3     1  UNL1        0.4181
     33 F           4.2709   -0.1412    2.4585 F       1  UNL1       -0.1659
     34 F           6.2130   -0.6887    3.4137 F       1  UNL1       -0.1659
     35 F           5.7908   -1.4794    1.3902 F       1  UNL1       -0.1659
     36 S          -6.4449   -7.4257   -3.1118 S.O2    1  UNL1        0.0908
     37 C          -8.2412   -7.4095   -2.8788 C.3     1  UNL1        0.5261
     38 O          -5.8668   -8.6967   -2.5195 O.2     1  UNL1       -0.1612
     39 O          -6.1243   -7.3746   -4.5935 O.2     1  UNL1       -0.1612
     40 F          -8.7933   -8.5054   -3.5063 F       1  UNL1       -0.1500
     41 F          -8.5337   -7.4594   -1.5302 F       1  UNL1       -0.1500
     42 F          -8.7694   -6.2562   -3.4247 F       1  UNL1       -0.1500
     43 H          -6.6094   -3.3069   -0.5037 H       1  UNL1        0.0625
     44 H          -7.5997   -5.2582   -1.6273 H       1  UNL1        0.0637
     45 H          -3.7210   -6.5383   -2.8387 H       1  UNL1        0.0637
     46 H          -2.7303   -4.5840   -1.7199 H       1  UNL1        0.0625
     47 H           1.8194   -1.2366   -1.1988 H       1  UNL1        0.0275
     48 H           0.3148   -0.9780   -2.0516 H       1  UNL1        0.0275
     49 H           0.5672   -1.6584    1.0746 H       1  UNL1        0.0276
     50 H          -0.4076   -2.5524   -0.0692 H       1  UNL1        0.0276
     51 H           0.3451    1.1982    0.8913 H       1  UNL1        0.0275
     52 H           1.0761   -0.3589    0.5769 H       1  UNL1        0.0275
     53 H          -0.0361    2.8192   -0.1810 H       1  UNL1        0.0275
     54 H          -0.9723    1.9643   -1.3853 H       1  UNL1        0.0275
     55 H          -1.5922    0.6436   -0.7403 H       1  UNL1        0.0276
     56 H          -0.8404   -0.8867   -1.1285 H       1  UNL1        0.0276
     57 H          -0.9702    1.3182    1.7750 H       1  UNL1        0.0276
     58 H          -2.3960    1.4573    0.7721 H       1  UNL1        0.0276
     59 H           3.7762   -0.4613   -1.5600 H       1  UNL1        0.0457
     60 H           2.9531   -1.0695   -0.1451 H       1  UNL1        0.0457
     61 H           4.6800   -0.7980   -0.1013 H       1  UNL1        0.0457
     62 H           8.0361    0.2640    2.7370 H       1  UNL1        0.0623
     63 H           9.3549    2.2316    2.1178 H       1  UNL1        0.0618
     64 H           8.3673    3.9353    0.6357 H       1  UNL1        0.0618
     65 H           6.0953    3.6319   -0.2189 H       1  UNL1        0.0625
@<TRIPOS>BOND
     1    10    11   ar
     2    11     7   ar
     3     7     8   ar
     4     5     6   ar
     5    21    12   ar
     6    12    22   ar
     7    22    23   ar
     8    23    24   ar
     9    24    21   ar
    10     6     1   ar
    11    21    25    1
    12     1     2   ar
    13    24    26    1
    14     3     4   ar
    15    26    27   ar
    16    27    28   ar
    17     4     5   ar
    18    28    29   ar
    19     2     3   ar
    20    29    30   ar
    21     8     9   ar
    22    30    31   ar
    23    31    26   ar
    24     9    10   ar
    25    27    32    1
    26    13    14    1
    27    32    33    1
    28    13    15    1
    29    32    34    1
    30    14    16    1
    31    32    35    1
    32    18     7    1
    33    10     1    1
    34    14    17    1
    35     4    36    1
    36    15    18    1
    37    36    37    1
    38    16    19    1
    39    36    38    2
    40    17    20    1
    41    36    39    2
    42    18    19    1
    43    37    40    1
    44    18    20    1
    45    37    41    1
    46    12    14    1
    47    37    42    1
    48     2    43    1
    49     3    44    1
    50     5    45    1
    51     6    46    1
    52    13    47    1
    53    13    48    1
    54    15    49    1
    55    15    50    1
    56    16    51    1
    57    16    52    1
    58    17    53    1
    59    17    54    1
    60    19    55    1
    61    19    56    1
    62    20    57    1
    63    20    58    1
    64    25    59    1
    65    25    60    1
    66    25    61    1
    67    28    62    1
    68    29    63    1
    69    30    64    1
    70    31    65    1
@<TRIPOS>MOLECULE
BDB50174285
 59 62 0 0 0
SMALL
GASTEIGER

@<TRIPOS>ATOM
      1 C           1.5651   -0.1220    0.4910 C.3     1  UNL1        0.0261
      2 C           1.2802   -1.2854   -0.4992 C.3     1  UNL1       -0.0349
      3 C          -1.3443    1.3472    0.6827 C.3     1  UNL1        0.0074
      4 C          -1.4580   -0.1632    0.8947 C.3     1  UNL1       -0.0462
      5 C          -1.2852   -0.8735   -0.4597 C.3     1  UNL1       -0.0526
      6 C          -0.1472   -1.9112   -0.3630 C.3     1  UNL1       -0.0514
      7 N           1.1362    1.1606   -0.0626 N.ar    1  UNL1       -0.3143
      8 C           1.9406    1.9818   -0.7104 C.ar    1  UNL1        0.1397
      9 N           1.2854    3.1006   -0.9939 N.ar    1  UNL1       -0.1338
     10 N           0.1036    2.9871   -0.5430 N.ar    1  UNL1       -0.1344
     11 C          -0.0285    1.7961    0.0371 C.ar    1  UNL1        0.1335
     12 C           3.5830    0.1366   -1.5982 C.3     1  UNL1       -0.0399
     13 C           3.3695    1.7084   -1.0575 C.3     1  UNL1        0.0307
     14 C           5.3294   -0.2550   -1.2436 C.3     1  UNL1       -0.0465
     15 C           4.3100    1.4670   -0.4834 C.3     1  UNL1       -0.0399
     16 C           4.2127    3.1106   -1.4196 C.3     1  UNL1       -0.0399
     17 C           6.2459    1.1358   -1.5516 C.3     1  UNL1       -0.0291
     18 C           5.2467    1.3728   -2.0872 C.3     1  UNL1       -0.0465
     19 C           5.9514    2.7239   -1.0401 C.3     1  UNL1       -0.0465
     20 C           7.3084    0.9888   -2.6558 C.3     1  UNL1       -0.0474
     21 C           6.9157   -0.1499   -3.6155 C.3     1  UNL1       -0.0526
     22 C           7.9872   -0.2927   -4.7108 C.3     1  UNL1       -0.0533
     23 C           7.5926   -1.4315   -5.6688 C.3     1  UNL1       -0.0559
     24 C           8.6635   -1.5761   -6.7658 C.3     1  UNL1       -0.0653
     25 H           2.6439   -0.0823    0.7023 H       1  UNL1        0.0493
     26 H           1.0280   -0.3085    1.4326 H       1  UNL1        0.0493
     27 H           2.0297   -2.0750   -0.3416 H       1  UNL1        0.0282
     28 H           1.4088   -0.9141   -1.5266 H       1  UNL1        0.0282
     29 H          -1.4505    1.8493    1.6557 H       1  UNL1        0.0344
     30 H          -2.1812    1.6789    0.0506 H       1  UNL1        0.0344
     31 H          -2.4474   -0.4021    1.3118 H       1  UNL1        0.0269
     32 H          -0.6727   -0.4967    1.5890 H       1  UNL1        0.0269
     33 H          -2.2224   -1.3829   -0.7281 H       1  UNL1        0.0265
     34 H          -1.0387   -0.1322   -1.2341 H       1  UNL1        0.0265
     35 H          -0.2824   -2.6640   -1.1535 H       1  UNL1        0.0266
     36 H          -0.2182   -2.4283    0.6052 H       1  UNL1        0.0266
     37 H           2.9267   -0.5471   -1.0397 H       1  UNL1        0.0275
     38 H           3.4013    0.0812   -2.6817 H       1  UNL1        0.0275
     39 H           5.4365   -0.5424   -0.1872 H       1  UNL1        0.0271
     40 H           5.6662   -1.0724   -1.8980 H       1  UNL1        0.0271
     41 H           4.3062    0.4743   -0.0096 H       1  UNL1        0.0275
     42 H           4.7000    2.3049    0.1131 H       1  UNL1        0.0275
     43 H           3.8664    3.9364   -0.7808 H       1  UNL1        0.0275
     44 H           4.1082    3.3489   -2.4883 H       1  UNL1        0.0275
     45 H           5.2366    2.3587   -2.5749 H       1  UNL1        0.0271
     46 H           4.8626    0.5331   -2.6850 H       1  UNL1        0.0271
     47 H           6.6115    3.4166   -1.5827 H       1  UNL1        0.0271
     48 H           6.1206    2.8013    0.0441 H       1  UNL1        0.0271
     49 H           7.3833    1.9309   -3.2188 H       1  UNL1        0.0271
     50 H           8.2828    0.7610   -2.1990 H       1  UNL1        0.0271
     51 H           6.8387   -1.0925   -3.0538 H       1  UNL1        0.0265
     52 H           5.9456    0.0794   -4.0806 H       1  UNL1        0.0265
     53 H           8.0641    0.6492   -5.2737 H       1  UNL1        0.0265
     54 H           8.9579   -0.5238   -4.2479 H       1  UNL1        0.0265
     55 H           7.5154   -2.3736   -5.1063 H       1  UNL1        0.0263
     56 H           6.6222   -1.2017   -6.1330 H       1  UNL1        0.0263
     57 H           9.6343   -1.8070   -6.3030 H       1  UNL1        0.0230
     58 H           8.7415   -0.6345   -7.3291 H       1  UNL1        0.0230
     59 H           8.3815   -2.3898   -7.4502 H       1  UNL1        0.0230
@<TRIPOS>BOND
     1     4     5    1
     2     5     6    1
     3     6     2    1
     4     7     1    1
     5     1     2    1
     6    11     3    1
     7     3     4    1
     8    12    13    1
     9    12    14    1
    10    13    15    1
    11    13    16    1
    12    14    17    1
    13    15    18    1
    14    16    19    1
    15    17    18    1
    16    17    19    1
    17     8    13    1
    18     7     8   ar
    19    17    20    1
    20     8     9   ar
    21    20    21    1
    22     9    10   ar
    23    21    22    1
    24    10    11   ar
    25    22    23    1
    26    11     7   ar
    27    23    24    1
    28     1    25    1
    29     1    26    1
    30     2    27    1
    31     2    28    1
    32     3    29    1
    33     3    30    1
    34     4    31    1
    35     4    32    1
    36     5    33    1
    37     5    34    1
    38     6    35    1
    39     6    36    1
    40    12    37    1
    41    12    38    1
    42    14    39    1
    43    14    40    1
    44    15    41    1
    45    15    42    1
    46    16    43    1
    47    16    44    1
    48    18    45    1
    49    18    46    1
    50    19    47    1
    51    19    48    1
    52    20    49    1
    53    20    50    1
    54    21    51    1
    55    21    52    1
    56    22    53    1
    57    22    54    1
    58    23    55    1
    59    23    56    1
    60    24    57    1
    61    24    58    1
    62    24    59    1
@<TRIPOS>MOLECULE
BDB50317223
 51 55 0 0 0
SMALL
GASTEIGER

@<TRIPOS>ATOM
      1 N          -2.4853    3.3254   -4.2517 N.ar    1  UNL1       -0.2403
      2 C          -2.9499    2.8371   -5.3969 C.ar    1  UNL1        0.0297
      3 C          -4.1883    3.2342   -5.8871 C.ar    1  UNL1       -0.0435
      4 C          -4.9407    4.1507   -5.1667 C.ar    1  UNL1       -0.0571
      5 C          -4.4268    4.6414   -3.9747 C.ar    1  UNL1       -0.0217
      6 C          -3.1811    4.2047   -3.5375 C.ar    1  UNL1        0.1218
      7 N          -2.6337    4.7043   -2.3026 N.pl3   1  UNL1       -0.3036
      8 C           1.0458   -0.5490    0.3899 C.3     1  UNL1       -0.0473
      9 C           0.8143    0.9327    0.0261 C.3     1  UNL1       -0.0402
     10 C          -0.3109   -1.2826    0.4434 C.3     1  UNL1       -0.0402
     11 C           0.1269    1.0234   -1.3530 C.3     1  UNL1       -0.0456
     12 C          -0.9988   -1.1943   -0.9356 C.3     1  UNL1       -0.0456
     13 C          -1.2293    0.2876   -1.2982 C.3     1  UNL1       -0.0218
     14 C          -1.2097   -0.6258    1.5127 C.3     1  UNL1       -0.0456
     15 C          -1.4400    0.8554    1.1476 C.3     1  UNL1       -0.0218
     16 C          -0.0840    1.5916    1.0945 C.3     1  UNL1       -0.0456
     17 C          -2.1286    0.9450   -0.2305 C.3     1  UNL1        0.0288
     18 C          -3.4579    2.9744   -0.8185 C.2     1  UNL1        0.2338
     19 C          -3.4828    4.4306   -1.1612 C.3     1  UNL1        0.1010
     20 O          -4.5190    2.3435   -0.7620 O.2     1  UNL1       -0.2738
     21 C          -2.5034    6.1817   -2.3025 C.3     1  UNL1        0.0144
     22 C          -2.6613    6.5891   -0.8008 C.3     1  UNL1       -0.0350
     23 C          -2.8123    5.2405   -0.0779 C.3     1  UNL1       -0.0244
     24 N          -2.2186    2.3510   -0.5650 N.am    1  UNL1       -0.3104
     25 H          -2.3481    2.1108   -5.9628 H       1  UNL1        0.0830
     26 H          -4.5676    2.8265   -6.8357 H       1  UNL1        0.0633
     27 H          -5.9239    4.4814   -5.5328 H       1  UNL1        0.0619
     28 H          -4.9996    5.3690   -3.3811 H       1  UNL1        0.0652
     29 H           1.5362   -0.6143    1.3724 H       1  UNL1        0.0271
     30 H           1.6861   -1.0181   -0.3717 H       1  UNL1        0.0271
     31 H           1.7813    1.4557   -0.0120 H       1  UNL1        0.0301
     32 H          -0.1467   -2.3389    0.7028 H       1  UNL1        0.0301
     33 H          -0.0396    2.0796   -1.6115 H       1  UNL1        0.0271
     34 H           0.7671    0.5550   -2.1150 H       1  UNL1        0.0271
     35 H          -1.9660   -1.7169   -0.8985 H       1  UNL1        0.0271
     36 H          -0.3570   -1.6622   -1.6966 H       1  UNL1        0.0271
     37 H          -1.7197    0.3512   -2.2808 H       1  UNL1        0.0319
     38 H          -2.1760   -1.1500    1.5509 H       1  UNL1        0.0271
     39 H          -0.7177   -0.6897    2.4944 H       1  UNL1        0.0271
     40 H          -2.0808    1.3241    1.9090 H       1  UNL1        0.0319
     41 H          -0.2505    2.6475    0.8351 H       1  UNL1        0.0271
     42 H           0.4066    1.5273    2.0770 H       1  UNL1        0.0271
     43 H          -3.1107    0.4505   -0.2002 H       1  UNL1        0.0504
     44 H          -4.5418    4.6812   -1.3217 H       1  UNL1        0.0596
     45 H          -3.3073    6.6346   -2.9014 H       1  UNL1        0.0464
     46 H          -1.5086    6.4749   -2.6692 H       1  UNL1        0.0464
     47 H          -1.7567    7.1083   -0.4513 H       1  UNL1        0.0281
     48 H          -3.5683    7.1964   -0.6648 H       1  UNL1        0.0281
     49 H          -3.4744    5.3418    0.7947 H       1  UNL1        0.0288
     50 H          -1.8250    4.8201    0.1640 H       1  UNL1        0.0288
     51 H          -1.3552    2.9102   -0.6192 H       1  UNL1        0.1490
@<TRIPOS>BOND
     1     1     2   ar
     2     2     3   ar
     3     3     4   ar
     4     4     5   ar
     5     5     6   ar
     6     6     7    1
     7     8     9    1
     8     8    10    1
     9     9    11    1
    10    10    12    1
    11    11    13    1
    12    12    13    1
    13    14    15    1
    14    10    14    1
    15     9    16    1
    16    13    17    1
    17    17    15    1
    18    15    16    1
    19    19    18    1
    20    18    20    2
    21    19     7    1
    22     7    21    1
    23    21    22    1
    24    22    23    1
    25    23    19    1
    26     1     6   ar
    27    17    24    1
    28    24    18   am
    29     2    25    1
    30     3    26    1
    31     4    27    1
    32     5    28    1
    33     8    29    1
    34     8    30    1
    35     9    31    1
    36    10    32    1
    37    11    33    1
    38    11    34    1
    39    12    35    1
    40    12    36    1
    41    13    37    1
    42    14    38    1
    43    14    39    1
    44    15    40    1
    45    16    41    1
    46    16    42    1
    47    17    43    1
    48    19    44    1
    49    21    45    1
    50    21    46    1
    51    22    47    1
    52    22    48    1
    53    23    49    1
    54    23    50    1
    55    24    51    1
@<TRIPOS>MOLECULE
BDB29864
 38 40 0 0 0
SMALL
GASTEIGER

@<TRIPOS>ATOM
      1 C           5.1939   -1.7741   -0.0152 C.ar    1  UNL1        0.0727
      2 S           3.8542   -0.6174    0.0222 S.O2    1  UNL1       -0.0581
      3 N           2.3596   -1.4415   -0.0002 N.pl3   1  UNL1       -0.5210
      4 C           1.1600   -0.7184   -0.0001 C.ar    1  UNL1       -0.0333
      5 C           0.0004    1.3796    0.0001 C.ar    1  UNL1       -0.0583
      6 C           1.1933    0.6710    0.0001 C.ar    1  UNL1       -0.0579
      7 N           0.0000   -1.3669   -0.0002 N.ar    1  UNL1       -0.2560
      8 C          -1.1598   -0.7181   -0.0002 C.ar    1  UNL1        0.1147
      9 C          -1.1926    0.6713   -0.0001 C.ar    1  UNL1       -0.0222
     10 O           3.9519    0.2957   -1.1853 O.2     1  UNL1       -0.1842
     11 O           3.9523    0.2157    1.2859 O.2     1  UNL1       -0.1842
     12 N          -2.3835   -1.4552   -0.0004 N.pl3   1  UNL1       -0.3432
     13 C           6.5031   -1.3112   -0.0684 C.ar    1  UNL1       -0.0377
     14 C           7.5583   -2.2151   -0.0953 C.ar    1  UNL1       -0.0523
     15 C           7.3030   -3.5810   -0.0689 C.ar    1  UNL1       -0.0178
     16 C           5.9935   -4.0436   -0.0158 C.ar    1  UNL1       -0.0523
     17 C           4.9385   -3.1398    0.0111 C.ar    1  UNL1       -0.0377
     18 C           8.4157   -4.5352   -0.0973 C.ar    1  UNL1       -0.0178
     19 C           8.1602   -5.9011   -0.0709 C.ar    1  UNL1       -0.0528
     20 C           9.2148   -6.8057   -0.0977 C.ar    1  UNL1       -0.0438
     21 C          10.5245   -6.3439   -0.1509 C.ar    1  UNL1        0.0518
     22 C          10.7803   -4.9781   -0.1772 C.ar    1  UNL1       -0.0438
     23 C           9.7256   -4.0735   -0.1504 C.ar    1  UNL1       -0.0528
     24 C          11.6112   -7.2762   -0.1809 C.1     1  UNL1        0.0992
     25 N          12.4814   -8.0297   -0.2079 N.1     1  UNL1       -0.1909
     26 H           0.0006    2.4796    0.0002 H       1  UNL1        0.0619
     27 H           2.1558    1.2036    0.0002 H       1  UNL1        0.0620
     28 H          -2.1550    1.2042   -0.0001 H       1  UNL1        0.0652
     29 H          -2.3680   -2.4851   -0.0005 H       1  UNL1        0.1437
     30 H          -3.2838   -0.9548   -0.0004 H       1  UNL1        0.1437
     31 H           6.7041   -0.2299   -0.0892 H       1  UNL1        0.0636
     32 H           8.5950   -1.8497   -0.1373 H       1  UNL1        0.0624
     33 H           5.7924   -5.1249    0.0050 H       1  UNL1        0.0624
     34 H           3.9017   -3.5050    0.0532 H       1  UNL1        0.0636
     35 H           7.1234   -6.2661   -0.0288 H       1  UNL1        0.0624
     36 H           9.0130   -7.8868   -0.0769 H       1  UNL1        0.0631
     37 H          11.8171   -4.6132   -0.2193 H       1  UNL1        0.0631
     38 H           9.9275   -2.9924   -0.1713 H       1  UNL1        0.0624
@<TRIPOS>BOND
     1     1     2    1
     2     2     3    1
     3     3     4    1
     4     6     4   ar
     5     4     7   ar
     6     5     6   ar
     7     5     9   ar
     8     7     8   ar
     9     8     9   ar
    10     2    10    2
    11     2    11    2
    12     8    12    1
    13    17     1   ar
    14    13     1   ar
    15    13    14   ar
    16    14    15   ar
    17    15    16   ar
    18    16    17   ar
    19    15    18    1
    20    23    18   ar
    21    19    18   ar
    22    19    20   ar
    23    20    21   ar
    24    21    22   ar
    25    22    23   ar
    26    21    24    1
    27    24    25    3
    28     5    26    1
    29     6    27    1
    30     9    28    1
    31    12    29    1
    32    12    30    1
    33    13    31    1
    34    14    32    1
    35    16    33    1
    36    17    34    1
    37    19    35    1
    38    20    36    1
    39    22    37    1
    40    23    38    1
@<TRIPOS>MOLECULE
BDB50248569
 56 58 0 0 0
SMALL
GASTEIGER

@<TRIPOS>ATOM
      1 C          -2.9270    1.4684    1.6362 C.3     1  UNL1        0.0594
      2 C          -3.2699    0.0931    2.1412 C.2     1  UNL1        0.2179
      3 O          -4.1720   -0.5539    1.6027 O.2     1  UNL1       -0.2754
      4 C           6.0981    1.1296    2.1368 C.ar    1  UNL1       -0.0077
      5 C           5.0424    1.7181    1.4507 C.ar    1  UNL1       -0.0537
      6 C           3.9414    0.9542    1.0832 C.ar    1  UNL1       -0.0350
      7 C           3.8952   -0.3984    1.4016 C.ar    1  UNL1        0.1055
      8 C           4.9526   -0.9863    2.0882 C.ar    1  UNL1       -0.0350
      9 C           6.0537   -0.2223    2.4557 C.ar    1  UNL1       -0.0537
     10 C           6.1269    2.5892    3.0612 C.3     1  UNL1        0.1828
     11 O           4.9510    3.2107    3.5846 O.3     1  UNL1       -0.3758
     12 C           7.2450    3.4370    2.0251 C.3     1  UNL1        0.4221
     13 C           7.3980    1.9839    4.0740 C.3     1  UNL1       -0.0233
     14 S           2.5122   -1.4511    0.9281 S.O2    1  UNL1        0.0612
     15 N           1.1754   -0.6749    0.1585 N.3     1  UNL1       -0.1714
     16 O           1.9987   -2.1425    2.1768 O.2     1  UNL1       -0.1528
     17 O           3.0364   -2.5226   -0.0084 O.2     1  UNL1       -0.1528
     18 C           1.2488    0.7175   -0.1801 C.3     1  UNL1        0.0418
     19 C          -0.0523    1.4065    0.2718 C.3     1  UNL1        0.0160
     20 N          -1.2115    0.7086   -0.3099 N.3     1  UNL1       -0.2986
     21 C          -1.2583   -0.6627    0.2305 C.3     1  UNL1        0.0134
     22 C           0.0079   -1.4309   -0.2006 C.3     1  UNL1        0.0336
     23 C           1.4015    0.8605   -1.7062 C.3     1  UNL1       -0.0466
     24 C          -2.4831    1.4415    0.1005 C.3     1  UNL1        0.0129
     25 F           8.3855    4.0907    2.4423 F       1  UNL1       -0.1673
     26 F           6.1460    4.0940    2.5490 F       1  UNL1       -0.1673
     27 F           7.2006    3.4634    0.6432 F       1  UNL1       -0.1673
     28 C          -3.8270    2.5569    2.0631 C.3     1  UNL1       -0.0369
     29 C          -2.3768    2.4403    2.5997 C.3     1  UNL1       -0.0369
     30 N          -2.5709   -0.4468    3.2232 N.am    1  UNL1       -0.3288
     31 H           5.0784    2.7883    1.1987 H       1  UNL1        0.0622
     32 H           3.1058    1.4199    0.5401 H       1  UNL1        0.0637
     33 H           4.9171   -2.0565    2.3404 H       1  UNL1        0.0637
     34 H           6.8897   -0.6874    2.9988 H       1  UNL1        0.0622
     35 H           8.4261    1.2990    1.0270 H       1  UNL1        0.2110
     36 H           7.5242    0.9589    4.4529 H       1  UNL1        0.0263
     37 H           6.4866    2.4268    4.5018 H       1  UNL1        0.0263
     38 H           8.2668    2.5880    4.3744 H       1  UNL1        0.0263
     39 H           2.1112    1.1832    0.3193 H       1  UNL1        0.0490
     40 H          -0.0495    2.4537   -0.0651 H       1  UNL1        0.0442
     41 H          -0.1206    1.3765    1.3693 H       1  UNL1        0.0442
     42 H          -2.1490   -1.1798   -0.1557 H       1  UNL1        0.0440
     43 H          -1.3058   -0.6226    1.3288 H       1  UNL1        0.0440
     44 H           0.0328   -2.4076    0.3048 H       1  UNL1        0.0457
     45 H          -0.0096   -1.5829   -1.2899 H       1  UNL1        0.0457
     46 H           0.5344    0.4071   -2.2087 H       1  UNL1        0.0246
     47 H           2.3217    0.3552   -2.0347 H       1  UNL1        0.0246
     48 H           1.4580    1.9271   -1.9694 H       1  UNL1        0.0246
     49 H          -3.3151    1.0229   -0.4849 H       1  UNL1        0.0437
     50 H          -2.3955    2.4822   -0.2449 H       1  UNL1        0.0437
     51 H          -4.5530    2.2238    2.8194 H       1  UNL1        0.0276
     52 H          -3.9031    3.3530    1.3078 H       1  UNL1        0.0276
     53 H          -1.7195    3.1783    2.1167 H       1  UNL1        0.0276
     54 H          -2.3691    2.0477    3.6272 H       1  UNL1        0.0276
     55 H          -2.8091   -1.3863    3.5720 H       1  UNL1        0.1449
     56 H          -1.8180    0.0939    3.6721 H       1  UNL1        0.1449
@<TRIPOS>BOND
     1     1    28    1
     2    29     1    1
     3     2     3    2
     4     4     5   ar
     5     5     6   ar
     6     6     7   ar
     7     7     8   ar
     8     8     9   ar
     9     9     4   ar
    10     4    10    1
    11    10    11    1
    12    10    12    1
    13    10    13    1
    14     7    14    1
    15    14    15    1
    16    14    16    2
    17    14    17    2
    18    15    18    1
    19    15    22    1
    20    18    19    1
    21    19    20    1
    22    20    21    1
    23    21    22    1
    24    18    23    1
    25    20    24    1
    26    24     1    1
    27     1     2    1
    28    12    25    1
    29    12    26    1
    30    12    27    1
    31    29    28    1
    32     2    30   am
    33     5    31    1
    34     6    32    1
    35     8    33    1
    36     9    34    1
    37    11    35    1
    38    13    36    1
    39    13    37    1
    40    13    38    1
    41    18    39    1
    42    19    40    1
    43    19    41    1
    44    21    42    1
    45    21    43    1
    46    22    44    1
    47    22    45    1
    48    23    46    1
    49    23    47    1
    50    23    48    1
    51    24    49    1
    52    24    50    1
    53    28    51    1
    54    28    52    1
    55    29    53    1
    56    29    54    1
    57    30    55    1
    58    30    56    1
@<TRIPOS>MOLECULE
BDB29860
 39 41 0 0 0
SMALL
GASTEIGER

@<TRIPOS>ATOM
      1 C           5.1999   -1.7741   -0.0152 C.ar    1  UNL1        0.0727
      2 S           3.8611   -0.6163    0.0222 S.O2    1  UNL1       -0.0581
      3 N           2.3659   -1.4392   -0.0002 N.pl3   1  UNL1       -0.5211
      4 C           1.1668   -0.7151   -0.0001 C.ar    1  UNL1       -0.0351
      5 C           0.0088    1.3839    0.0001 C.ar    1  UNL1       -0.0598
      6 C           1.2011    0.6743    0.0001 C.ar    1  UNL1       -0.0580
      7 N           0.0063   -1.3626   -0.0002 N.ar    1  UNL1       -0.2754
      8 C          -1.1529   -0.7129   -0.0002 C.ar    1  UNL1        0.0368
      9 C          -1.1848    0.6765   -0.0001 C.ar    1  UNL1       -0.0407
     10 O           3.9596    0.2967   -1.1852 O.2     1  UNL1       -0.1842
     11 O           3.9599    0.2168    1.2859 O.2     1  UNL1       -0.1842
     12 C          -2.4369   -1.4848   -0.0004 C.3     1  UNL1       -0.0224
     13 C           6.5095   -1.3122   -0.0684 C.ar    1  UNL1       -0.0377
     14 C           7.5640   -2.2170   -0.0952 C.ar    1  UNL1       -0.0523
     15 C           7.3075   -3.5827   -0.0689 C.ar    1  UNL1       -0.0178
     16 C           5.9977   -4.0443   -0.0158 C.ar    1  UNL1       -0.0523
     17 C           4.9433   -3.1395    0.0111 C.ar    1  UNL1       -0.0377
     18 C           8.4194   -4.5378   -0.0972 C.ar    1  UNL1       -0.0178
     19 C           8.1628   -5.9035   -0.0709 C.ar    1  UNL1       -0.0528
     20 C           9.2167   -6.8089   -0.0977 C.ar    1  UNL1       -0.0438
     21 C          10.5268   -6.3482   -0.1508 C.ar    1  UNL1        0.0518
     22 C          10.7837   -4.9826   -0.1772 C.ar    1  UNL1       -0.0438
     23 C           9.7298   -4.0772   -0.1504 C.ar    1  UNL1       -0.0528
     24 C          11.6127   -7.2814   -0.1809 C.1     1  UNL1        0.0992
     25 N          12.4823   -8.0356   -0.2078 N.1     1  UNL1       -0.1909
     26 H           0.0098    2.4839    0.0002 H       1  UNL1        0.0618
     27 H           2.1640    1.2062    0.0002 H       1  UNL1        0.0620
     28 H          -2.1467    1.2101    0.0000 H       1  UNL1        0.0635
     29 H          -2.3851   -2.1341    0.8860 H       1  UNL1        0.0292
     30 H          -2.3850   -2.1339   -0.8869 H       1  UNL1        0.0292
     31 H          -3.3335   -0.8475   -0.0004 H       1  UNL1        0.0292
     32 H           6.7114   -0.2311   -0.0891 H       1  UNL1        0.0636
     33 H           8.6010   -1.8525   -0.1373 H       1  UNL1        0.0624
     34 H           5.7956   -5.1253    0.0050 H       1  UNL1        0.0624
     35 H           3.9063   -3.5040    0.0532 H       1  UNL1        0.0636
     36 H           7.1257   -6.2677   -0.0288 H       1  UNL1        0.0624
     37 H           9.0141   -7.8899   -0.0768 H       1  UNL1        0.0631
     38 H          11.8208   -4.6185   -0.2192 H       1  UNL1        0.0631
     39 H           9.9325   -2.9962   -0.1712 H       1  UNL1        0.0624
@<TRIPOS>BOND
     1     1     2    1
     2     2     3    1
     3     3     4    1
     4     6     4   ar
     5     4     7   ar
     6     5     6   ar
     7     5     9   ar
     8     7     8   ar
     9     8     9   ar
    10     2    10    2
    11     2    11    2
    12     8    12    1
    13    17     1   ar
    14    13     1   ar
    15    13    14   ar
    16    14    15   ar
    17    15    16   ar
    18    16    17   ar
    19    15    18    1
    20    23    18   ar
    21    19    18   ar
    22    19    20   ar
    23    20    21   ar
    24    21    22   ar
    25    22    23   ar
    26    21    24    1
    27    24    25    3
    28     5    26    1
    29     6    27    1
    30     9    28    1
    31    12    29    1
    32    12    30    1
    33    12    31    1
    34    13    32    1
    35    14    33    1
    36    16    34    1
    37    17    35    1
    38    19    36    1
    39    20    37    1
    40    22    38    1
    41    23    39    1
@<TRIPOS>MOLECULE
BDB13749
 39 40 0 0 0
SMALL
GASTEIGER

@<TRIPOS>ATOM
      1 C           3.2877   -1.4067    0.0076 C.3     1  UNL1        0.0474
      2 N           1.9022   -1.9314    0.0012 N.pl3   1  UNL1       -0.3189
      3 C           0.9153   -0.8793    0.0000 C.2     1  UNL1        0.1478
      4 N           1.2146    0.3573    0.0000 N.am    1  UNL1       -0.1582
      5 S          -0.8035   -1.1839    0.0003 S.3     1  UNL1       -0.0768
      6 C           0.0793    1.2196    0.0002 C.2     1  UNL1        0.2546
      7 O           0.1926    2.4499    0.0000 O.2     1  UNL1       -0.2721
      8 C          -1.2806    0.5407    0.0007 C.3     1  UNL1        0.1009
      9 C          -2.0838    0.9065   -1.2609 C.3     1  UNL1       -0.0413
     10 C          -2.0846    0.9070    1.2644 C.3     1  UNL1       -0.0234
     11 C          -3.4149    0.1304    1.2740 C.3     1  UNL1       -0.0610
     12 C          -2.3724    2.4219    1.2812 C.3     1  UNL1       -0.0610
     13 C           4.2559   -2.5357   -0.2054 C.ar    1  UNL1        0.0076
     14 C           5.6226   -2.3141   -0.0866 C.ar    1  UNL1        0.1283
     15 C           6.5150   -3.3633   -0.2711 C.ar    1  UNL1       -0.0261
     16 C           6.0402   -4.6339   -0.5741 C.ar    1  UNL1       -0.0590
     17 C           4.6733   -4.8553   -0.6928 C.ar    1  UNL1       -0.0613
     18 C           3.7808   -3.8061   -0.5084 C.ar    1  UNL1       -0.0541
     19 C           3.6262   -0.7125    1.3494 C.3     1  UNL1       -0.0424
     20 F           6.0798   -1.0902    0.2053 F       1  UNL1       -0.2051
     21 H           3.3689   -0.6675   -0.8030 H       1  UNL1        0.0546
     22 H           1.6697   -2.9348   -0.0021 H       1  UNL1        0.1483
     23 H          -1.5150    0.5893   -2.1474 H       1  UNL1        0.0248
     24 H          -2.2178    1.9978   -1.2916 H       1  UNL1        0.0248
     25 H          -3.0642    0.4079   -1.2456 H       1  UNL1        0.0248
     26 H          -1.4975    0.6397    2.1554 H       1  UNL1        0.0313
     27 H          -3.2086   -0.9501    1.2717 H       1  UNL1        0.0233
     28 H          -3.9990    0.3929    0.3796 H       1  UNL1        0.0233
     29 H          -3.9879    0.3921    2.1758 H       1  UNL1        0.0233
     30 H          -2.9524    2.6928    0.3867 H       1  UNL1        0.0233
     31 H          -1.4208    2.9738    1.2796 H       1  UNL1        0.0233
     32 H          -2.9459    2.6800    2.1837 H       1  UNL1        0.0233
     33 H           7.5969   -3.1882   -0.1772 H       1  UNL1        0.0646
     34 H           6.7465   -5.4644   -0.7201 H       1  UNL1        0.0618
     35 H           4.2978   -5.8610   -0.9327 H       1  UNL1        0.0618
     36 H           2.6989   -3.9811   -0.6022 H       1  UNL1        0.0622
     37 H           4.6508   -0.3136    1.3169 H       1  UNL1        0.0251
     38 H           3.5359   -1.4318    2.1767 H       1  UNL1        0.0251
     39 H           2.9220    0.1164    1.5142 H       1  UNL1        0.0251
@<TRIPOS>BOND
     1    13     1    1
     2     1     2    1
     3     2     3    1
     4     4     3    2
     5     3     5    1
     6     6     4    1
     7     6     8    1
     8     5     8    1
     9     6     7    2
    10     8     9    1
    11     8    10    1
    12    10    11    1
    13    10    12    1
    14    18    13   ar
    15    14    13   ar
    16    14    15   ar
    17    15    16   ar
    18    16    17   ar
    19    17    18   ar
    20     1    19    1
    21    14    20    1
    22     1    21    1
    23     2    22    1
    24     9    23    1
    25     9    24    1
    26     9    25    1
    27    10    26    1
    28    11    27    1
    29    11    28    1
    30    11    29    1
    31    12    30    1
    32    12    31    1
    33    12    32    1
    34    15    33    1
    35    16    34    1
    36    17    35    1
    37    18    36    1
    38    19    37    1
    39    19    38    1
    40    19    39    1
@<TRIPOS>MOLECULE
BDB50195506
 39 42 0 0 0
SMALL
GASTEIGER

@<TRIPOS>ATOM
      1 C          -3.2117    1.5861    0.2618 C.2     1  UNL1        0.2472
      2 C          -3.9433    1.8926    1.5492 C.ar    1  UNL1        0.0398
      3 C          -5.2017    2.4762    1.4358 C.ar    1  UNL1       -0.0294
      4 C          -5.9317    2.7855    2.5771 C.ar    1  UNL1        0.0637
      5 C          -5.4057    2.5124    3.8338 C.ar    1  UNL1        0.0617
      6 C          -4.1495    1.9299    3.9495 C.ar    1  UNL1        0.0637
      7 C          -3.4191    1.6203    2.8085 C.ar    1  UNL1       -0.0294
      8 CL         -3.5005    1.5928    5.5029 Cl      1  UNL1       -0.0816
      9 CL         -7.4839    3.5054    2.4353 Cl      1  UNL1       -0.0816
     10 N          -6.1562    2.8305    5.0067 N.pl3   1  UNL1       -0.3557
     11 O          -3.7878    1.8775   -0.7924 O.2     1  UNL1       -0.2700
     12 N          -1.9064    0.9868    0.1474 N.am    1  UNL1       -0.2914
     13 C           1.1089   -0.5882   -0.1214 C.3     1  UNL1       -0.0471
     14 C           0.9110    0.9359   -0.0270 C.3     1  UNL1       -0.0374
     15 C          -0.2616   -1.2879   -0.0757 C.3     1  UNL1       -0.0374
     16 C           0.1955    1.2831    1.2959 C.3     1  UNL1       -0.0314
     17 C          -0.9760   -0.9387    1.2496 C.3     1  UNL1       -0.0314
     18 C          -1.1846    0.5895    1.3202 C.3     1  UNL1        0.0271
     19 C          -1.1289   -0.8031   -1.2596 C.3     1  UNL1       -0.0314
     20 C          -1.3344    0.7225   -1.1400 C.3     1  UNL1        0.0271
     21 C           0.0433    1.4181   -1.2089 C.3     1  UNL1       -0.0314
     22 H          -5.6190    2.6928    0.4413 H       1  UNL1        0.0640
     23 H          -2.4248    1.1591    2.9014 H       1  UNL1        0.0640
     24 H          -5.7663    2.6281    5.9383 H       1  UNL1        0.1424
     25 H          -7.0874    3.2624    4.9210 H       1  UNL1        0.1424
     26 H           1.6144   -0.8346   -1.0667 H       1  UNL1        0.0271
     27 H           1.7236   -0.9323    0.7235 H       1  UNL1        0.0271
     28 H           1.8928    1.4310   -0.0598 H       1  UNL1        0.0302
     29 H          -0.1159   -2.3761   -0.1435 H       1  UNL1        0.0302
     30 H           0.0600    2.3724    1.3670 H       1  UNL1        0.0286
     31 H           0.7992    0.9291    2.1445 H       1  UNL1        0.0286
     32 H          -1.9520   -1.4448    1.2859 H       1  UNL1        0.0286
     33 H          -0.3576   -1.2644    2.0990 H       1  UNL1        0.0286
     34 H          -1.7305    0.8636    2.2350 H       1  UNL1        0.0501
     35 H          -2.1051   -1.3093   -1.2312 H       1  UNL1        0.0286
     36 H          -0.6191   -1.0336   -2.2067 H       1  UNL1        0.0286
     37 H          -1.9852    1.0900   -1.9471 H       1  UNL1        0.0501
     38 H          -0.0921    2.5078   -1.1452 H       1  UNL1        0.0286
     39 H           0.5370    1.1612   -2.1577 H       1  UNL1        0.0286
@<TRIPOS>BOND
     1     5     6   ar
     2     1    11    2
     3     3     4   ar
     4     1    12   am
     5     6     7   ar
     6     7     2   ar
     7     2     3   ar
     8     6     8    1
     9     4     5   ar
    10     4     9    1
    11     5    10    1
    12     2     1    1
    13    13    14    1
    14    13    15    1
    15    14    16    1
    16    15    17    1
    17    16    18    1
    18    17    18    1
    19    19    20    1
    20    15    19    1
    21    14    21    1
    22    18    12    1
    23    12    20    1
    24    20    21    1
    25     3    22    1
    26     7    23    1
    27    10    24    1
    28    10    25    1
    29    13    26    1
    30    13    27    1
    31    14    28    1
    32    15    29    1
    33    16    30    1
    34    16    31    1
    35    17    32    1
    36    17    33    1
    37    18    34    1
    38    19    35    1
    39    19    36    1
    40    20    37    1
    41    21    38    1
    42    21    39    1
@<TRIPOS>MOLECULE
BDB50216921
 45 49 0 0 0
SMALL
GASTEIGER

@<TRIPOS>ATOM
      1 C           0.7596   -1.0331   -0.1334 C.3     1  UNL1        0.1903
      2 C          -0.7138   -0.9556   -0.4789 C.3     1  UNL1       -0.0040
      3 C          -1.1633    0.1940    0.4394 C.3     1  UNL1       -0.0488
      4 C           0.0475    1.1842    0.4551 C.3     1  UNL1       -0.0488
      5 C           1.2082    0.4180   -0.2339 C.3     1  UNL1       -0.0040
      6 O           0.9582   -1.5685    1.2080 O.2     1  UNL1       -0.4511
      7 C           1.5302   -1.9631   -0.9713 C.2     1  UNL1        0.2841
      8 N           2.0998   -2.9313   -0.2216 N.am    1  UNL1       -0.1283
      9 C           1.7844   -2.7164    0.9913 C.2     1  UNL1        0.2755
     10 O           1.6435   -1.8664   -2.1975 O.2     1  UNL1       -0.2691
     11 C           3.5765   -7.6517    1.6771 C.3     1  UNL1       -0.0472
     12 C           4.3375   -6.7106    2.6353 C.3     1  UNL1       -0.0386
     13 C           3.2235   -6.8890    0.3823 C.3     1  UNL1       -0.0386
     14 C           5.6348   -6.2220    1.9561 C.3     1  UNL1       -0.0472
     15 C           4.5200   -6.4004   -0.2985 C.3     1  UNL1       -0.0472
     16 C           5.2801   -5.4602    0.6612 C.3     1  UNL1       -0.0386
     17 C           2.3332   -5.6764    0.7254 C.3     1  UNL1       -0.0287
     18 C           3.0926   -4.7333    1.6833 C.3     1  UNL1        0.0367
     19 C           3.4482   -5.4977    2.9802 C.3     1  UNL1       -0.0287
     20 C           4.3912   -4.2462    1.0047 C.3     1  UNL1       -0.0287
     21 N           2.2330   -3.5742    2.0803 N.pl3   1  UNL1       -0.2956
     22 H          -1.2255   -1.8895   -0.2033 H       1  UNL1        0.0309
     23 H          -0.8486   -0.6787   -1.5349 H       1  UNL1        0.0309
     24 H          -2.0500    0.6900    0.0178 H       1  UNL1        0.0267
     25 H          -1.3534   -0.1842    1.4547 H       1  UNL1        0.0267
     26 H           0.3203    1.4275    1.4926 H       1  UNL1        0.0267
     27 H          -0.2004    2.0894   -0.1185 H       1  UNL1        0.0267
     28 H           2.1462    0.5664    0.3212 H       1  UNL1        0.0309
     29 H           1.2905    0.7196   -1.2885 H       1  UNL1        0.0309
     30 H           2.6518   -7.9997    2.1606 H       1  UNL1        0.0271
     31 H           4.2105   -8.5164    1.4316 H       1  UNL1        0.0271
     32 H           4.5899   -7.2538    3.5579 H       1  UNL1        0.0302
     33 H           2.6818   -7.5594   -0.3012 H       1  UNL1        0.0302
     34 H           6.1764   -5.5511    2.6392 H       1  UNL1        0.0271
     35 H           6.2694   -7.0862    1.7102 H       1  UNL1        0.0271
     36 H           4.2688   -5.8567   -1.2211 H       1  UNL1        0.0271
     37 H           5.1545   -7.2652   -0.5429 H       1  UNL1        0.0271
     38 H           6.2042   -5.1119    0.1768 H       1  UNL1        0.0302
     39 H           2.0796   -5.1358   -0.1984 H       1  UNL1        0.0288
     40 H           1.4098   -6.0259    1.2105 H       1  UNL1        0.0288
     41 H           3.9898   -4.8270    3.6634 H       1  UNL1        0.0288
     42 H           2.5242   -5.8464    3.4646 H       1  UNL1        0.0288
     43 H           4.9330   -3.5769    1.6891 H       1  UNL1        0.0288
     44 H           4.1400   -3.7018    0.0824 H       1  UNL1        0.0288
     45 H           1.9749   -3.3944    3.0611 H       1  UNL1        0.1507
@<TRIPOS>BOND
     1     4     5    1
     2     5     1    1
     3     1     2    1
     4     2     3    1
     5     6     1    1
     6     1     7    1
     7     7     8    1
     8     8     9    2
     9     9     6    1
    10     7    10    2
    11    11    12    1
    12    11    13    1
    13    12    14    1
    14    13    15    1
    15    14    16    1
    16    15    16    1
    17    17    18    1
    18    13    17    1
    19    12    19    1
    20    16    20    1
    21    20    18    1
    22    18    19    1
    23     3     4    1
    24     9    21    1
    25    18    21    1
    26     2    22    1
    27     2    23    1
    28     3    24    1
    29     3    25    1
    30     4    26    1
    31     4    27    1
    32     5    28    1
    33     5    29    1
    34    11    30    1
    35    11    31    1
    36    12    32    1
    37    13    33    1
    38    14    34    1
    39    14    35    1
    40    15    36    1
    41    15    37    1
    42    16    38    1
    43    17    39    1
    44    17    40    1
    45    19    41    1
    46    19    42    1
    47    20    43    1
    48    20    44    1
    49    21    45    1
@<TRIPOS>MOLECULE
BDB50202105
 57 61 0 0 0
SMALL
GASTEIGER

@<TRIPOS>ATOM
      1 N          -0.5479    5.7760   -1.2180 N.3     1  UNL1       -0.2910
      2 C           0.1774    5.8609    0.0725 C.3     1  UNL1        0.0152
      3 C           1.2777    6.9202   -0.0161 C.3     1  UNL1        0.0250
      4 N           2.1107    6.6979   -1.2063 N.pl3   1  UNL1       -0.3274
      5 C           1.4939    6.3393   -2.4896 C.3     1  UNL1        0.0250
      6 C           0.3774    5.3127   -2.2803 C.3     1  UNL1        0.0152
      7 C           3.2876    7.4891   -1.2827 C.ar    1  UNL1        0.0298
      8 C           3.7389    8.1692   -0.1693 C.ar    1  UNL1       -0.0393
      9 C           4.8411    9.0162   -0.2687 C.ar    1  UNL1       -0.0416
     10 C           5.4777    9.1792   -1.4897 C.ar    1  UNL1        0.0411
     11 C           5.0377    8.4739   -2.6073 C.ar    1  UNL1       -0.0416
     12 C           0.9207   -1.0335    0.4910 C.3     1  UNL1       -0.0473
     13 C           0.9613    0.4567    0.1483 C.3     1  UNL1       -0.0402
     14 C          -0.5435   -1.5096    0.4763 C.3     1  UNL1       -0.0402
     15 C           0.3601    0.6671   -1.2729 C.3     1  UNL1       -0.0456
     16 C          -1.1495   -1.2899   -0.9272 C.3     1  UNL1       -0.0456
     17 C          -1.1146    0.2114   -1.2830 C.3     1  UNL1       -0.0218
     18 C          -1.3601   -0.7202    1.5234 C.3     1  UNL1       -0.0456
     19 C          -1.3266    0.7854    1.1860 C.3     1  UNL1       -0.0218
     20 C           0.1469    1.2445    1.2168 C.3     1  UNL1       -0.0456
     21 C          -1.9535    1.0000   -0.2283 C.3     1  UNL1        0.0288
     22 N          -2.2421    2.4221   -0.5838 N.am    1  UNL1       -0.3109
     23 C          -1.2652    3.4460   -0.7366 C.2     1  UNL1        0.2273
     24 O          -0.0702    3.2154   -0.5794 O.2     1  UNL1       -0.2744
     25 C          -1.7063    4.8465   -1.1000 C.3     1  UNL1        0.0758
     26 CL          6.8043   10.2645   -1.6285 Cl      1  UNL1       -0.0835
     27 C           3.9490    7.6248   -2.5068 C.ar    1  UNL1       -0.0393
     28 H          -0.5114    6.1264    0.8527 H       1  UNL1        0.0442
     29 H           0.6165    4.9103    0.2988 H       1  UNL1        0.0442
     30 H           0.8295    7.8972   -0.0725 H       1  UNL1        0.0476
     31 H           1.8930    6.8708    0.8622 H       1  UNL1        0.0476
     32 H           2.2401    5.9250   -3.1410 H       1  UNL1        0.0476
     33 H           1.0844    7.2230   -2.9481 H       1  UNL1        0.0476
     34 H          -0.1650    5.1856   -3.1961 H       1  UNL1        0.0442
     35 H           0.8081    4.3709   -1.9930 H       1  UNL1        0.0442
     36 H           3.2422    8.0459    0.7704 H       1  UNL1        0.0636
     37 H           5.1952    9.5393    0.5950 H       1  UNL1        0.0633
     38 H           5.5415    8.5885   -3.5443 H       1  UNL1        0.0633
     39 H           1.3354   -1.1886    1.4618 H       1  UNL1        0.0271
     40 H           1.4819   -1.5829   -0.2356 H       1  UNL1        0.0271
     41 H           1.9693    0.8157    0.1510 H       1  UNL1        0.0301
     42 H          -0.5759   -2.5519    0.7161 H       1  UNL1        0.0301
     43 H           0.4142    1.7061   -1.5337 H       1  UNL1        0.0271
     44 H           0.9148    0.0924   -1.9844 H       1  UNL1        0.0271
     45 H          -2.1634   -1.6341   -0.9366 H       1  UNL1        0.0271
     46 H          -0.5814   -1.8416   -1.6522 H       1  UNL1        0.0271
     47 H          -1.5338    0.3943   -2.2504 H       1  UNL1        0.0319
     48 H          -2.3737   -1.0654    1.5176 H       1  UNL1        0.0271
     49 H          -0.9377   -0.8777    2.4978 H       1  UNL1        0.0271
     50 H          -1.8897    1.3584    1.8927 H       1  UNL1        0.0319
     51 H           0.1976    2.2918    1.0043 H       1  UNL1        0.0271
     52 H           0.5585    1.0576    2.1895 H       1  UNL1        0.0271
     53 H          -2.9417    0.5897   -0.2177 H       1  UNL1        0.0504
     54 H          -3.1958    2.6742   -0.7253 H       1  UNL1        0.1490
     55 H          -2.2385    4.8201   -2.0412 H       1  UNL1        0.0522
     56 H          -2.3813    5.2155   -0.3438 H       1  UNL1        0.0522
     57 H           3.6153    7.0749   -3.3619 H       1  UNL1        0.0636
@<TRIPOS>BOND
     1     1     2    1
     2     4     7    1
     3     7     8   ar
     4     1     6    1
     5     8     9   ar
     6     2     3    1
     7     9    10   ar
     8     3     4    1
     9    12    13    1
    10    12    14    1
    11    13    15    1
    12    14    16    1
    13    15    17    1
    14    16    17    1
    15    18    19    1
    16    14    18    1
    17    13    20    1
    18    17    21    1
    19    21    19    1
    20    19    20    1
    21    10    11   ar
    22    21    22    1
    23     4     5    1
    24    22    23   am
    25    11    27   ar
    26    23    24    2
    27    27     7   ar
    28    23    25    1
    29    25     1    1
    30     5     6    1
    31    10    26    1
    32     2    28    1
    33     2    29    1
    34     3    30    1
    35     3    31    1
    36     5    32    1
    37     5    33    1
    38     6    34    1
    39     6    35    1
    40     8    36    1
    41     9    37    1
    42    11    38    1
    43    12    39    1
    44    12    40    1
    45    13    41    1
    46    14    42    1
    47    15    43    1
    48    15    44    1
    49    16    45    1
    50    16    46    1
    51    17    47    1
    52    18    48    1
    53    18    49    1
    54    19    50    1
    55    20    51    1
    56    20    52    1
    57    21    53    1
    58    22    54    1
    59    25    55    1
    60    25    56    1
    61    27    57    1
@<TRIPOS>MOLECULE
BDB50224219
 29 30 0 0 0
SMALL
GASTEIGER

@<TRIPOS>ATOM
      1 C           5.5145   -2.6311   -0.0183 C.ar    1  UNL1       -0.0589
      2 C           4.7392   -3.7843    0.0005 C.ar    1  UNL1       -0.0246
      3 C           3.3526   -3.6888    0.0094 C.ar    1  UNL1        0.1445
      4 C           2.7391   -2.4399   -0.0005 C.ar    1  UNL1        0.0682
      5 C           3.5171   -1.2873   -0.0193 C.ar    1  UNL1       -0.0377
      6 C           4.9035   -1.3828   -0.0282 C.ar    1  UNL1       -0.0598
      7 N           1.2677   -2.4135    0.0099 N.pl3   1  UNL1       -0.2957
      8 C           0.5517   -1.1303    0.0003 C.2     1  UNL1        0.1168
      9 S           1.3635    0.4115   -0.0258 S.3     1  UNL1       -0.2716
     10 C          -0.1296    1.4045   -0.0327 C.2     1  UNL1       -0.1683
     11 C          -1.1885    0.3082   -0.0109 C.2     1  UNL1        0.0993
     12 N          -0.7166   -1.0368    0.0042 N.am    1  UNL1       -0.1927
     13 O          -2.3951    0.5735    0.0127 O.2     1  UNL1       -0.3110
     14 C          -0.2175    2.2118    1.2791 C.3     1  UNL1       -0.1544
     15 C          -0.1316    1.2565    2.4850 C.3     1  UNL1       -0.0886
     16 C          -1.5500    2.9842    1.3258 C.3     1  UNL1       -0.0886
     17 F           2.6052   -4.7993    0.0276 F       1  UNL1       -0.2035
     18 H           6.6119   -2.7063   -0.0254 H       1  UNL1        0.0618
     19 H           5.2227   -4.7723    0.0084 H       1  UNL1        0.0647
     20 H           3.0345   -0.2989   -0.0272 H       1  UNL1        0.0637
     21 H           5.5175   -0.4702   -0.0432 H       1  UNL1        0.0618
     22 H           0.7382   -3.2969    0.0238 H       1  UNL1        0.1539
     23 H           0.6185    2.9254    1.3205 H       1  UNL1       -0.0039
     24 H           0.8240    0.7127    2.4531 H       1  UNL1        0.0208
     25 H          -0.9626    0.5371    2.4413 H       1  UNL1        0.0208
     26 H          -0.1945    1.8340    3.4191 H       1  UNL1        0.0208
     27 H          -2.3872    2.2724    1.2770 H       1  UNL1        0.0208
     28 H          -1.6046    3.6713    0.4686 H       1  UNL1        0.0208
     29 H          -1.6110    3.5591    2.2616 H       1  UNL1        0.0208
@<TRIPOS>BOND
     1     8     9    1
     2     4     5   ar
     3     2     3   ar
     4     5     6   ar
     5     9    10    1
     6    10    11    1
     7    11    12    1
     8    12     8    2
     9     6     1   ar
    10    11    13    2
    11     1     2   ar
    12    10    14    1
    13     4     7    1
    14    14    15    1
    15     3     4   ar
    16    14    16    1
    17     7     8    1
    18     3    17    1
    19     1    18    1
    20     2    19    1
    21     5    20    1
    22     6    21    1
    23     7    22    1
    24    14    23    1
    25    15    24    1
    26    15    25    1
    27    15    26    1
    28    16    27    1
    29    16    28    1
    30    16    29    1
@<TRIPOS>MOLECULE
BDB50195499
 50 52 0 0 0
SMALL
GASTEIGER

@<TRIPOS>ATOM
      1 C           1.2126   -0.7004   -0.0001 C.ar    1  UNL1        0.0398
      2 C           1.2129    0.6893    0.0000 C.ar    1  UNL1       -0.0294
      3 C           0.0093    1.3840    0.0000 C.ar    1  UNL1        0.0637
      4 C          -1.1941    0.6894   -0.0001 C.ar    1  UNL1        0.0617
      5 C          -1.1941   -0.7001   -0.0002 C.ar    1  UNL1        0.0637
      6 C           0.0092   -1.3953   -0.0002 C.ar    1  UNL1       -0.0294
      7 CL          0.0083    3.1009    0.0001 Cl      1  UNL1       -0.0816
      8 CL         -2.6817   -1.5574   -0.0004 Cl      1  UNL1       -0.0816
      9 N          -2.4310    1.4037   -0.0002 N.pl3   1  UNL1       -0.3557
     10 C           2.5200   -1.4521    0.0000 C.2     1  UNL1        0.2473
     11 O           2.4554   -2.6867   -0.0001 O.2     1  UNL1       -0.2700
     12 N           3.8412   -0.8658    0.0001 N.am    1  UNL1       -0.2890
     13 C           4.4765   -1.8203   -0.9871 C.3     1  UNL1        0.0395
     14 C           5.9642   -1.3525   -1.0965 C.3     1  UNL1        0.0307
     15 N           6.3144    0.0681   -0.9231 N.pl3   1  UNL1       -0.3236
     16 C           5.0977    0.8783   -1.1080 C.3     1  UNL1        0.0307
     17 C           4.0771    0.5478   -0.0019 C.3     1  UNL1        0.0395
     18 C           4.5057   -3.2204   -0.2386 C.3     1  UNL1       -0.0449
     19 C           4.6509    0.9660    1.3651 C.3     1  UNL1       -0.0449
     20 C           7.2466    0.4242   -1.9673 C.ar    1  UNL1        0.0720
     21 C           7.2604    1.7193   -2.4715 C.ar    1  UNL1        0.1410
     22 C           8.1616    2.0663   -3.4709 C.ar    1  UNL1       -0.0181
     23 C           9.0489    1.1180   -3.9659 C.ar    1  UNL1       -0.0582
     24 C           9.0350   -0.1770   -3.4616 C.ar    1  UNL1       -0.0598
     25 C           8.1338   -0.5240   -2.4622 C.ar    1  UNL1       -0.0371
     26 O           6.3667    2.6748   -1.9730 O.3     1  UNL1       -0.4933
     27 C           6.5466    3.9398   -2.6258 C.3     1  UNL1        0.0789
     28 H           2.1656    1.2393    0.0001 H       1  UNL1        0.0640
     29 H           0.0090   -2.4953   -0.0003 H       1  UNL1        0.0640
     30 H          -2.4309    2.4337   -0.0001 H       1  UNL1        0.1424
     31 H          -3.3230    0.8888   -0.0003 H       1  UNL1        0.1424
     32 H           3.9898   -1.8714   -1.9722 H       1  UNL1        0.0513
     33 H           6.8733   -1.9665   -1.0155 H       1  UNL1        0.0482
     34 H           5.5087   -1.4991   -2.0870 H       1  UNL1        0.0482
     35 H           5.3579    1.9459   -1.0577 H       1  UNL1        0.0482
     36 H           4.6555    0.6573   -2.0906 H       1  UNL1        0.0482
     37 H           3.1370    1.0883   -0.1867 H       1  UNL1        0.0513
     38 H           5.3795   -3.8880   -0.2093 H       1  UNL1        0.0248
     39 H           4.0228   -3.2948   -1.2242 H       1  UNL1        0.0248
     40 H           3.7912   -3.5154    0.5440 H       1  UNL1        0.0248
     41 H           5.5984    0.4373    1.5464 H       1  UNL1        0.0248
     42 H           3.9330    0.7161    2.1602 H       1  UNL1        0.0248
     43 H           4.8335    2.0507    1.3678 H       1  UNL1        0.0248
     44 H           8.1726    3.0912   -3.8700 H       1  UNL1        0.0655
     45 H           9.7622    1.3925   -4.7570 H       1  UNL1        0.0619
     46 H           9.7374   -0.9274   -3.8536 H       1  UNL1        0.0618
     47 H           8.1228   -1.5490   -2.0630 H       1  UNL1        0.0637
     48 H           6.3797    3.8094   -3.7052 H       1  UNL1        0.0660
     49 H           7.5789    4.2814   -2.4598 H       1  UNL1        0.0660
     50 H           5.8381    4.6791   -2.2237 H       1  UNL1        0.0660
@<TRIPOS>BOND
     1     1     2   ar
     2     3     7    1
     3     3     4   ar
     4     5     8    1
     5    12    17    1
     6    13    14    1
     7    14    15    1
     8    15    16    1
     9    16    17    1
    10    13    18    1
    11     4     9    1
    12    17    19    1
    13     4     5   ar
    14    15    20    1
    15     1    10    1
    16    20    21   ar
    17     2     3   ar
    18    21    22   ar
    19    10    11    2
    20    22    23   ar
    21     5     6   ar
    22    23    24   ar
    23    10    12   am
    24    24    25   ar
    25    25    20   ar
    26    12    13    1
    27    21    26    1
    28     6     1   ar
    29    26    27    1
    30     2    28    1
    31     6    29    1
    32     9    30    1
    33     9    31    1
    34    13    32    1
    35    14    33    1
    36    14    34    1
    37    16    35    1
    38    16    36    1
    39    17    37    1
    40    18    38    1
    41    18    39    1
    42    18    40    1
    43    19    41    1
    44    19    42    1
    45    19    43    1
    46    22    44    1
    47    23    45    1
    48    24    46    1
    49    25    47    1
    50    27    48    1
    51    27    49    1
    52    27    50    1
@<TRIPOS>MOLECULE
BDB50195483
 45 48 0 0 0
SMALL
GASTEIGER

@<TRIPOS>ATOM
      1 C           1.1515   -0.6625    0.1497 C.3     1  UNL1       -0.0472
      2 C           1.0076    0.8744    0.1374 C.3     1  UNL1       -0.0386
      3 C          -0.2496   -1.3089    0.1059 C.3     1  UNL1       -0.0386
      4 C           0.1938    1.3263    1.3689 C.3     1  UNL1       -0.0472
      5 C          -1.0644   -0.8586    1.3373 C.3     1  UNL1       -0.0472
      6 C          -1.2066    0.6784    1.3238 C.3     1  UNL1       -0.0386
      7 C          -0.9783   -0.8719   -1.1821 C.3     1  UNL1       -0.0285
      8 C          -1.1203    0.6651   -1.1937 C.3     1  UNL1        0.0381
      9 C           0.2799    1.3133   -1.1505 C.3     1  UNL1       -0.0285
     10 C          -1.9362    1.1171    0.0365 C.3     1  UNL1       -0.0285
     11 C          -4.0294    0.9207   -3.9011 C.ar    1  UNL1        0.0398
     12 C          -3.6124    1.7539   -4.9340 C.ar    1  UNL1       -0.0294
     13 C          -4.4550    2.0066   -6.0098 C.ar    1  UNL1        0.0637
     14 C          -5.7168    1.4267   -6.0556 C.ar    1  UNL1        0.0617
     15 C          -6.1363    0.5940   -5.0254 C.ar    1  UNL1        0.0637
     16 C          -5.2942    0.3409   -3.9494 C.ar    1  UNL1       -0.0294
     17 CL         -7.6958   -0.1221   -5.0829 Cl      1  UNL1       -0.0816
     18 CL         -3.9375    3.0354   -7.2833 Cl      1  UNL1       -0.0816
     19 N          -6.5826    1.6866   -7.1615 N.pl3   1  UNL1       -0.3557
     20 C          -3.1798    0.5878   -2.6886 C.2     1  UNL1        0.2469
     21 O          -3.7036   -0.1700   -1.8630 O.2     1  UNL1       -0.2700
     22 N          -1.8137    1.0805   -2.4183 N.am    1  UNL1       -0.2948
     23 C          -1.1009    1.9696   -3.3100 C.3     1  UNL1        0.0040
     24 H           1.7308   -0.9839   -0.7283 H       1  UNL1        0.0271
     25 H           1.6708   -0.9761    1.0673 H       1  UNL1        0.0271
     26 H           2.0058    1.3356    0.1693 H       1  UNL1        0.0302
     27 H          -0.1477   -2.4042    0.1154 H       1  UNL1        0.0302
     28 H           0.0910    2.4214    1.3603 H       1  UNL1        0.0271
     29 H           0.7128    1.0132    2.2868 H       1  UNL1        0.0271
     30 H          -2.0628   -1.3191    1.3051 H       1  UNL1        0.0271
     31 H          -0.5456   -1.1702    2.2558 H       1  UNL1        0.0271
     32 H          -1.7870    1.0000    2.2012 H       1  UNL1        0.0302
     33 H          -1.9765   -1.3330   -1.2127 H       1  UNL1        0.0289
     34 H          -0.3974   -1.1945   -2.0588 H       1  UNL1        0.0289
     35 H           0.1770    2.4085   -1.1589 H       1  UNL1        0.0289
     36 H           0.8594    0.9918   -2.0285 H       1  UNL1        0.0289
     37 H          -2.0378    2.2124    0.0261 H       1  UNL1        0.0289
     38 H          -2.9339    0.6551    0.0044 H       1  UNL1        0.0289
     39 H          -2.6137    2.2137   -4.8992 H       1  UNL1        0.0640
     40 H          -5.6274   -0.3185   -3.1345 H       1  UNL1        0.0640
     41 H          -6.2716    2.3039   -7.9251 H       1  UNL1        0.1424
     42 H          -7.5180    1.2567   -7.1953 H       1  UNL1        0.1424
     43 H          -1.7878    2.8214   -3.4224 H       1  UNL1        0.0429
     44 H          -1.1197    1.4347   -4.2710 H       1  UNL1        0.0429
     45 H          -0.0893    2.2625   -2.9923 H       1  UNL1        0.0429
@<TRIPOS>BOND
     1     1     2    1
     2    11    12   ar
     3     1     3    1
     4    12    13   ar
     5     2     4    1
     6    13    14   ar
     7     3     5    1
     8    14    15   ar
     9     4     6    1
    10    15    16   ar
    11    16    11   ar
    12     5     6    1
    13    15    17    1
    14     7     8    1
    15    13    18    1
    16     3     7    1
    17    14    19    1
    18     2     9    1
    19    11    20    1
    20     6    10    1
    21    20    21    2
    22    10     8    1
    23    20    22   am
    24     8     9    1
    25    22    23    1
    26    22     8    1
    27     1    24    1
    28     1    25    1
    29     2    26    1
    30     3    27    1
    31     4    28    1
    32     4    29    1
    33     5    30    1
    34     5    31    1
    35     6    32    1
    36     7    33    1
    37     7    34    1
    38     9    35    1
    39     9    36    1
    40    10    37    1
    41    10    38    1
    42    12    39    1
    43    16    40    1
    44    19    41    1
    45    19    42    1
    46    23    43    1
    47    23    44    1
    48    23    45    1
@<TRIPOS>MOLECULE
BDB50216917
 45 46 0 0 0
SMALL
GASTEIGER

@<TRIPOS>ATOM
      1 C           0.7277   -1.0097    0.0008 C.3     1  UNL1        0.1898
      2 O           1.1321    0.3969    0.0010 O.2     1  UNL1       -0.4511
      3 C          -0.7471   -0.8968    0.0000 C.2     1  UNL1        0.2840
      4 N          -1.1421    0.3943   -0.0005 N.am    1  UNL1       -0.1283
      5 C          -0.1006    1.1167    0.0001 C.2     1  UNL1        0.2753
      6 O          -1.5167   -1.8628   -0.0005 O.2     1  UNL1       -0.2691
      7 N          -0.1518    2.5658   -0.0001 N.pl3   1  UNL1       -0.2983
      8 C           1.1808    3.2293    0.0007 C.3     1  UNL1        0.0245
      9 C           1.9635    2.9086   -1.3088 C.3     1  UNL1       -0.0345
     10 C           3.1102    3.8935   -1.6208 C.3     1  UNL1       -0.0514
     11 C           1.9646    2.9075    1.3129 C.3     1  UNL1       -0.0345
     12 C           3.1878    3.8083    1.5758 C.3     1  UNL1       -0.0514
     13 C           4.4978    3.0796    1.2071 C.3     1  UNL1       -0.0530
     14 C           5.1720    3.6433   -0.0684 C.3     1  UNL1       -0.0531
     15 C           4.4865    3.2314   -1.3998 C.3     1  UNL1       -0.0530
     16 C           1.2283   -1.7351   -1.2658 C.3     1  UNL1       -0.0069
     17 C           1.2273   -1.7357    1.2682 C.3     1  UNL1       -0.0069
     18 C           2.7715   -1.7076   -1.3093 C.3     1  UNL1       -0.0612
     19 C           0.6628   -3.1725    1.3171 C.3     1  UNL1       -0.0612
     20 H          -1.0370    3.0925   -0.0007 H       1  UNL1        0.1505
     21 H           1.0425    4.3206    0.0012 H       1  UNL1        0.0499
     22 H           1.2585    2.9090   -2.1531 H       1  UNL1        0.0283
     23 H           2.3807    1.8937   -1.2325 H       1  UNL1        0.0283
     24 H           3.0308    4.2228   -2.6674 H       1  UNL1        0.0266
     25 H           3.0225    4.7731   -0.9661 H       1  UNL1        0.0266
     26 H           1.2751    2.9938    2.1656 H       1  UNL1        0.0283
     27 H           2.3008    1.8608    1.2763 H       1  UNL1        0.0283
     28 H           3.2143    4.0849    2.6401 H       1  UNL1        0.0266
     29 H           3.1005    4.7243    0.9732 H       1  UNL1        0.0266
     30 H           5.2015    3.1625    2.0485 H       1  UNL1        0.0265
     31 H           4.2825    2.0118    1.0538 H       1  UNL1        0.0265
     32 H           6.2192    3.3075   -0.0930 H       1  UNL1        0.0265
     33 H           5.1860    4.7413   -0.0043 H       1  UNL1        0.0265
     34 H           5.1473    3.4984   -2.2376 H       1  UNL1        0.0265
     35 H           4.3604    2.1387   -1.4129 H       1  UNL1        0.0265
     36 H           0.8289   -1.2320   -2.1588 H       1  UNL1        0.0306
     37 H           0.8819   -2.7790   -1.2507 H       1  UNL1        0.0306
     38 H           0.8964   -1.1839    2.1605 H       1  UNL1        0.0306
     39 H           2.3265   -1.7763    1.2562 H       1  UNL1        0.0306
     40 H           3.1708   -2.2114   -0.4167 H       1  UNL1        0.0231
     41 H           3.1176   -0.6635   -1.3242 H       1  UNL1        0.0231
     42 H           3.1256   -2.2252   -2.2130 H       1  UNL1        0.0231
     43 H           0.9953   -3.7225    0.4244 H       1  UNL1        0.0231
     44 H          -0.4363   -3.1293    1.3285 H       1  UNL1        0.0231
     45 H           1.0224   -3.6841    2.2221 H       1  UNL1        0.0231
@<TRIPOS>BOND
     1     5     2    1
     2     3     6    2
     3     2     1    1
     4     5     7    1
     5     8     9    1
     6     9    10    1
     7     8    11    1
     8    11    12    1
     9    12    13    1
    10    13    14    1
    11    14    15    1
    12    15    10    1
    13     1     3    1
    14     1    16    1
    15     7     8    1
    16     1    17    1
    17     3     4    1
    18    16    18    1
    19     4     5    2
    20    17    19    1
    21     7    20    1
    22     8    21    1
    23     9    22    1
    24     9    23    1
    25    10    24    1
    26    10    25    1
    27    11    26    1
    28    11    27    1
    29    12    28    1
    30    12    29    1
    31    13    30    1
    32    13    31    1
    33    14    32    1
    34    14    33    1
    35    15    34    1
    36    15    35    1
    37    16    36    1
    38    16    37    1
    39    17    38    1
    40    17    39    1
    41    18    40    1
    42    18    41    1
    43    18    42    1
    44    19    43    1
    45    19    44    1
    46    19    45    1
@<TRIPOS>MOLECULE
BDB50319660
 36 38 0 0 0
SMALL
GASTEIGER

@<TRIPOS>ATOM
      1 C           0.4261   -0.7603    1.3780 C.3     1  UNL1       -0.0483
      2 C           0.9443    0.6766    1.1527 C.3     1  UNL1       -0.0498
      3 C           0.3324    1.0678   -0.2040 C.3     1  UNL1       -0.0390
      4 C           1.0863    0.2359   -1.2646 C.3     1  UNL1       -0.0314
      5 C           1.0058   -0.8265   -0.1868 C.3     1  UNL1        0.0252
      6 C          -0.4435   -1.0367    0.1327 C.3     1  UNL1       -0.0223
      7 C          -1.0359    0.3484   -0.1350 C.3     1  UNL1       -0.0456
      8 C           1.6330   -3.2955   -1.7045 C.2     1  UNL1        0.1128
      9 S           0.5845   -3.5446   -3.0652 S.3     1  UNL1       -0.2719
     10 C           1.3433   -5.0811   -3.5931 C.2     1  UNL1       -0.1683
     11 C           2.4326   -5.2265   -2.5367 C.2     1  UNL1        0.0993
     12 N           2.5070   -4.2012   -1.5493 N.am    1  UNL1       -0.1930
     13 O           3.2238   -6.1755   -2.5486 O.2     1  UNL1       -0.3110
     14 C           2.0053   -4.8817   -4.9700 C.3     1  UNL1       -0.1544
     15 C           3.0017   -3.7085   -4.9014 C.3     1  UNL1       -0.0886
     16 C           0.9203   -4.5706   -6.0170 C.3     1  UNL1       -0.0886
     17 N           1.5515   -2.1539   -0.7897 N.pl3   1  UNL1       -0.3245
     18 H          -0.1907   -0.8040    2.2877 H       1  UNL1        0.0269
     19 H           1.2689   -1.4661    1.4156 H       1  UNL1        0.0269
     20 H           0.5713    1.3436    1.9439 H       1  UNL1        0.0268
     21 H           2.0424    0.6800    1.0888 H       1  UNL1        0.0268
     22 H           0.3311    2.1484   -0.4097 H       1  UNL1        0.0301
     23 H           0.8739    0.6209   -2.2729 H       1  UNL1        0.0286
     24 H           2.1627    0.2143   -1.0393 H       1  UNL1        0.0286
     25 H           1.5340   -0.4876    0.7166 H       1  UNL1        0.0501
     26 H          -1.1118   -1.8989    0.2743 H       1  UNL1        0.0319
     27 H          -1.5448    0.3785   -1.1098 H       1  UNL1        0.0271
     28 H          -1.6218    0.7014    0.7264 H       1  UNL1        0.0271
     29 H           2.5417   -5.7992   -5.2539 H       1  UNL1       -0.0039
     30 H           3.7757   -3.9289   -4.1514 H       1  UNL1        0.0208
     31 H           2.4673   -2.7905   -4.6157 H       1  UNL1        0.0208
     32 H           3.4736   -3.5672   -5.8849 H       1  UNL1        0.0208
     33 H           0.3852   -3.6527   -5.7321 H       1  UNL1        0.0208
     34 H           0.2089   -5.4079   -6.0709 H       1  UNL1        0.0208
     35 H           1.3910   -4.4279   -7.0009 H       1  UNL1        0.0208
     36 H           2.1936   -2.0420    0.0079 H       1  UNL1        0.1480
@<TRIPOS>BOND
     1     1     2    1
     2     1     6    1
     3     2     3    1
     4     3     4    1
     5     4     5    1
     6     5     6    1
     7     6     7    1
     8     3     7    1
     9     8     9    1
    10     9    10    1
    11    10    11    1
    12    11    12    1
    13    12     8    2
    14    11    13    2
    15    10    14    1
    16    14    15    1
    17    14    16    1
    18     5    17    1
    19    17     8    1
    20     1    18    1
    21     1    19    1
    22     2    20    1
    23     2    21    1
    24     3    22    1
    25     4    23    1
    26     4    24    1
    27     5    25    1
    28     6    26    1
    29     7    27    1
    30     7    28    1
    31    14    29    1
    32    15    30    1
    33    15    31    1
    34    15    32    1
    35    16    33    1
    36    16    34    1
    37    16    35    1
    38    17    36    1
@<TRIPOS>MOLECULE
BDB50319665
 40 42 0 0 0
SMALL
GASTEIGER

@<TRIPOS>ATOM
      1 C           3.4396   -0.7200    0.6343 C.3     1  UNL1       -0.0483
      2 C           4.7367   -1.8499   -0.0883 C.3     1  UNL1       -0.0498
      3 C           4.9033   -0.9835   -0.6880 C.3     1  UNL1       -0.0390
      4 C           3.4432   -1.5115   -1.3529 C.3     1  UNL1       -0.0314
      5 C           2.7480   -2.3458   -0.0003 C.3     1  UNL1        0.0253
      6 C           3.7273   -1.1514    0.3474 C.3     1  UNL1       -0.0223
      7 C           4.9058   -0.9287    0.9831 C.3     1  UNL1       -0.0456
      8 C           0.5531   -1.1422   -0.0001 C.2     1  UNL1        0.1476
      9 S           1.3739    0.3983    0.0006 S.3     1  UNL1       -0.0768
     10 C          -0.1189    1.3850    0.0007 C.3     1  UNL1        0.1009
     11 C          -1.1848    0.3015    0.0003 C.2     1  UNL1        0.2546
     12 N          -0.7155   -1.0448   -0.0002 N.am    1  UNL1       -0.1582
     13 O          -2.3899    0.5739    0.0002 O.2     1  UNL1       -0.2721
     14 C          -0.2187    2.2636   -1.2625 C.3     1  UNL1       -0.0234
     15 C           0.9308    3.2890   -1.2713 C.3     1  UNL1       -0.0610
     16 C          -1.5706    3.0053   -1.2791 C.3     1  UNL1       -0.0610
     17 C          -0.2188    2.2611    1.2628 C.3     1  UNL1       -0.0413
     18 N           1.2584   -2.4184   -0.0005 N.pl3   1  UNL1       -0.3224
     19 H           2.6138   -0.6389   -0.0879 H       1  UNL1        0.0269
     20 H           3.9422    0.1838    1.0093 H       1  UNL1        0.0269
     21 H           4.2274   -2.6896   -0.5838 H       1  UNL1        0.0268
     22 H           5.4895   -2.0533    0.6875 H       1  UNL1        0.0268
     23 H           5.4945   -0.3500   -1.3656 H       1  UNL1        0.0301
     24 H           3.6284   -2.2139   -2.1789 H       1  UNL1        0.0286
     25 H           2.8163   -0.6522   -1.6333 H       1  UNL1        0.0286
     26 H           2.9912   -3.4185   -0.0127 H       1  UNL1        0.0501
     27 H           4.0526   -0.7374   -0.6184 H       1  UNL1        0.0319
     28 H           4.9665    0.1128    1.3318 H       1  UNL1        0.0271
     29 H           5.6960   -1.5793    1.3860 H       1  UNL1        0.0271
     30 H          -0.1456    1.6233   -2.1539 H       1  UNL1        0.0313
     31 H           1.8948    2.7590   -1.2691 H       1  UNL1        0.0233
     32 H           0.8615    3.9251   -0.3765 H       1  UNL1        0.0233
     33 H           0.8591    3.9154   -2.1726 H       1  UNL1        0.0233
     34 H          -1.6493    3.6401   -0.3842 H       1  UNL1        0.0233
     35 H          -2.3895    2.2708   -1.2781 H       1  UNL1        0.0233
     36 H          -1.6387    3.6311   -2.1812 H       1  UNL1        0.0233
     37 H           0.6611    2.9202    1.3006 H       1  UNL1        0.0248
     38 H          -0.2085    1.6043    2.1452 H       1  UNL1        0.0248
     39 H          -1.1411    2.8602    1.2465 H       1  UNL1        0.0248
     40 H           0.7569   -3.3180   -0.0009 H       1  UNL1        0.1480
@<TRIPOS>BOND
     1     1     6    1
     2     2     3    1
     3     3     4    1
     4     4     5    1
     5     5     6    1
     6     6     7    1
     7     3     7    1
     8     8     9    1
     9     9    10    1
    10    10    11    1
    11    11    12    1
    12    12     8    2
    13    11    13    2
    14    10    14    1
    15    14    15    1
    16    14    16    1
    17    10    17    1
    18     1     2    1
    19     5    18    1
    20    18     8    1
    21     1    19    1
    22     1    20    1
    23     2    21    1
    24     2    22    1
    25     3    23    1
    26     4    24    1
    27     4    25    1
    28     5    26    1
    29     6    27    1
    30     7    28    1
    31     7    29    1
    32    14    30    1
    33    15    31    1
    34    15    32    1
    35    15    33    1
    36    16    34    1
    37    16    35    1
    38    16    36    1
    39    17    37    1
    40    17    38    1
    41    17    39    1
    42    18    40    1
@<TRIPOS>MOLECULE
BDB50195486
 48 49 0 0 0
SMALL
GASTEIGER

@<TRIPOS>ATOM
      1 C           3.8131   -0.6603    1.1969 C.ar    1  UNL1        0.0398
      2 C           4.7336   -1.4824    1.8424 C.ar    1  UNL1       -0.0294
      3 C           5.9760   -0.9899    2.2392 C.ar    1  UNL1        0.0637
      4 C           6.3101    0.3355    2.0016 C.ar    1  UNL1        0.0617
      5 C           5.4103    1.1541    1.3318 C.ar    1  UNL1        0.0637
      6 C           4.1924    0.6410    0.9301 C.ar    1  UNL1       -0.0294
      7 CL          7.0950   -2.0334    3.0308 Cl      1  UNL1       -0.0816
      8 CL          5.7729    2.8071    1.0289 Cl      1  UNL1       -0.0816
      9 N           7.5590    0.8772    2.4389 N.pl3   1  UNL1       -0.3557
     10 C           2.4619   -1.2583    0.8366 C.2     1  UNL1        0.2472
     11 O           2.4356   -2.4711    1.0610 O.2     1  UNL1       -0.2700
     12 N           1.1703   -0.5687    0.2682 N.am    1  UNL1       -0.2895
     13 C           1.0075    0.8909   -0.2143 C.3     1  UNL1        0.0365
     14 C          -0.3995    1.3910    0.0708 C.3     1  UNL1        0.0179
     15 N          -1.4481    0.5472   -0.4033 N.3     1  UNL1       -0.2890
     16 C          -1.3369   -0.7488    0.2328 C.3     1  UNL1        0.0179
     17 C          -0.0176   -1.4352   -0.1295 C.3     1  UNL1        0.0365
     18 C           1.7652    2.0118    0.4771 C.3     1  UNL1       -0.0452
     19 C          -0.1119   -2.8245    0.5400 C.3     1  UNL1       -0.0452
     20 C          -2.7276    1.1821    0.0007 C.3     1  UNL1        0.0970
     21 C          -2.8264    1.4426    1.5173 C.2     1  UNL1        0.3213
     22 O          -3.9249    2.1251    2.0173 O.3     1  UNL1       -0.4640
     23 O          -1.9584    1.0569    2.3140 O.2     1  UNL1       -0.2494
     24 C          -3.7975    2.2402    3.4379 C.3     1  UNL1        0.0897
     25 C          -5.0449    2.9341    4.0107 C.3     1  UNL1       -0.0306
     26 H           4.4841   -2.5047    2.0360 H       1  UNL1        0.0640
     27 H           3.5181    1.2746    0.3927 H       1  UNL1        0.0640
     28 H           8.2297    0.2873    2.9411 H       1  UNL1        0.1424
     29 H           7.7795    1.8666    2.2627 H       1  UNL1        0.1424
     30 H           1.1895    0.9235   -1.2999 H       1  UNL1        0.0510
     31 H          -0.5211    2.3827   -0.3716 H       1  UNL1        0.0445
     32 H          -0.5175    1.5241    1.1518 H       1  UNL1        0.0445
     33 H          -2.1587   -1.3708   -0.0798 H       1  UNL1        0.0445
     34 H          -1.3923   -0.6257    1.3042 H       1  UNL1        0.0445
     35 H           0.0096   -1.5721   -1.2203 H       1  UNL1        0.0510
     36 H           2.8126    1.6926    0.4231 H       1  UNL1        0.0248
     37 H           1.4802    1.9101    1.5308 H       1  UNL1        0.0248
     38 H           1.5977    2.9080    0.0996 H       1  UNL1        0.0248
     39 H          -0.1173   -2.6379    1.6097 H       1  UNL1        0.0248
     40 H           0.8218   -3.3284    0.3094 H       1  UNL1        0.0248
     41 H          -0.9251   -3.3499    0.2319 H       1  UNL1        0.0248
     42 H          -3.5519    0.5450   -0.3041 H       1  UNL1        0.0542
     43 H          -2.8390    2.1256   -0.5303 H       1  UNL1        0.0542
     44 H          -2.9293    2.8185    3.6733 H       1  UNL1        0.0694
     45 H          -3.7035    1.2628    3.8688 H       1  UNL1        0.0694
     46 H          -5.9143    2.3564    3.7771 H       1  UNL1        0.0262
     47 H          -5.1401    3.9094    3.5819 H       1  UNL1        0.0262
     48 H          -4.9498    3.0206    5.0758 H       1  UNL1        0.0262
@<TRIPOS>BOND
     1    12    13    1
     2     6     1   ar
     3     1     2   ar
     4     3     7    1
     5     3     4   ar
     6     5     8    1
     7    12    17    1
     8    13    14    1
     9    14    15    1
    10    15    16    1
    11    16    17    1
    12    13    18    1
    13     4     9    1
    14    17    19    1
    15     4     5   ar
    16    15    20    1
    17     1    10    1
    18    21    20    1
    19     2     3   ar
    20    21    22    1
    21    10    11    2
    22    21    23    2
    23     5     6   ar
    24    22    24    1
    25    10    12   am
    26    24    25    1
    27     2    26    1
    28     6    27    1
    29     9    28    1
    30     9    29    1
    31    13    30    1
    32    14    31    1
    33    14    32    1
    34    16    33    1
    35    16    34    1
    36    17    35    1
    37    18    36    1
    38    18    37    1
    39    18    38    1
    40    19    39    1
    41    19    40    1
    42    19    41    1
    43    20    42    1
    44    20    43    1
    45    24    44    1
    46    24    45    1
    47    25    46    1
    48    25    47    1
    49    25    48    1
@<TRIPOS>MOLECULE
BDB50195497
 47 49 0 0 0
SMALL
GASTEIGER

@<TRIPOS>ATOM
      1 C           1.1125   -0.7050    0.0342 C.ar    1  UNL1        0.0398
      2 C          -0.0961   -1.3925    0.0213 C.ar    1  UNL1       -0.0294
      3 C          -1.3070   -0.7076    0.0068 C.ar    1  UNL1        0.0637
      4 C          -1.3249    0.6828    0.0055 C.ar    1  UNL1        0.0617
      5 C          -0.1260    1.3798    0.0155 C.ar    1  UNL1        0.0637
      6 C           1.0717    0.6831    0.0286 C.ar    1  UNL1       -0.0294
      7 CL         -2.7830   -1.5912   -0.0086 Cl      1  UNL1       -0.0816
      8 CL         -0.1088    3.1020    0.0153 Cl      1  UNL1       -0.0816
      9 N          -2.5662    1.3982   -0.0053 N.pl3   1  UNL1       -0.3557
     10 C           2.3951   -1.5301    0.0541 C.2     1  UNL1        0.2473
     11 O           2.2039   -2.7492    0.0557 O.2     1  UNL1       -0.2700
     12 N           3.8121   -0.9909    0.0785 N.am    1  UNL1       -0.2890
     13 C           4.4642   -2.0601   -0.8608 C.3     1  UNL1        0.0395
     14 C           5.9175   -1.4736   -1.1681 C.3     1  UNL1        0.0320
     15 N           6.0903   -0.0070   -1.2342 N.pl3   1  UNL1       -0.3102
     16 C           4.9003    0.7916   -1.1119 C.3     1  UNL1        0.0320
     17 C           4.1185    0.4436    0.1188 C.3     1  UNL1        0.0395
     18 C           4.7934   -3.3949   -0.0388 C.3     1  UNL1       -0.0449
     19 C           4.9302    0.8115    1.3784 C.3     1  UNL1       -0.0449
     20 C           7.1713    0.4749   -2.0990 C.ar    1  UNL1        0.1422
     21 C           7.3595    1.8078   -2.5152 C.ar    1  UNL1        0.0651
     22 C           8.3946    2.0831   -3.3985 C.ar    1  UNL1       -0.0363
     23 C           9.2228    1.0638   -3.8366 C.ar    1  UNL1       -0.0417
     24 C           9.0069   -0.2203   -3.3635 C.ar    1  UNL1        0.0298
     25 N           8.0100   -0.4667   -2.5235 N.ar    1  UNL1       -0.2384
     26 N           6.5707    2.9796   -2.1027 N.pl3   1  UNL1       -0.3553
     27 H          -0.0948   -2.4625    0.0225 H       1  UNL1        0.0640
     28 H           1.9912    1.2302    0.0345 H       1  UNL1        0.0640
     29 H          -3.4559    0.8879   -0.0118 H       1  UNL1        0.1424
     30 H          -2.5674    2.4270   -0.0048 H       1  UNL1        0.1424
     31 H           3.8880   -2.2464   -1.7756 H       1  UNL1        0.0513
     32 H           6.8844   -1.9425   -1.0830 H       1  UNL1        0.0482
     33 H           5.4481   -1.8167   -2.0725 H       1  UNL1        0.0482
     34 H           5.1757    1.8373   -1.0750 H       1  UNL1        0.0482
     35 H           4.2793    0.6403   -1.9814 H       1  UNL1        0.0482
     36 H           3.2625    1.0393    0.1095 H       1  UNL1        0.0513
     37 H           5.7134   -3.9296    0.0055 H       1  UNL1        0.0248
     38 H           4.2708   -3.6380   -0.9343 H       1  UNL1        0.0248
     39 H           4.1783   -3.6999    0.8109 H       1  UNL1        0.0248
     40 H           5.8427    0.2460    1.3734 H       1  UNL1        0.0248
     41 H           4.3580    0.5386    2.2448 H       1  UNL1        0.0248
     42 H           5.1408    1.8475    1.3893 H       1  UNL1        0.0248
     43 H           8.5524    3.0844   -3.7412 H       1  UNL1        0.0637
     44 H          10.0148    1.2640   -4.5277 H       1  UNL1        0.0633
     45 H           9.6477   -1.0177   -3.6772 H       1  UNL1        0.0830
     46 H           5.8338    2.9377   -1.4191 H       1  UNL1        0.1424
     47 H           6.8279    3.8988   -2.4798 H       1  UNL1        0.1424
@<TRIPOS>BOND
     1     6     1   ar
     2     1     2   ar
     3     3     7    1
     4     3     4   ar
     5     5     8    1
     6    12    17    1
     7    13    14    1
     8    14    15    1
     9    15    16    1
    10    16    17    1
    11    13    18    1
    12     4     9    1
    13    17    19    1
    14     4     5   ar
    15    15    20    1
    16     1    10    1
    17    20    21   ar
    18     2     3   ar
    19    21    22   ar
    20    10    11    2
    21    22    23   ar
    22     5     6   ar
    23    23    24   ar
    24    10    12   am
    25    24    25   ar
    26    25    20   ar
    27    12    13    1
    28    21    26    1
    29     2    27    1
    30     6    28    1
    31     9    29    1
    32     9    30    1
    33    13    31    1
    34    14    32    1
    35    14    33    1
    36    16    34    1
    37    16    35    1
    38    17    36    1
    39    18    37    1
    40    18    38    1
    41    18    39    1
    42    19    40    1
    43    19    41    1
    44    19    42    1
    45    22    43    1
    46    23    44    1
    47    24    45    1
    48    26    46    1
    49    26    47    1
@<TRIPOS>MOLECULE
BDB50216916
 42 43 0 0 0
SMALL
GASTEIGER

@<TRIPOS>ATOM
      1 C           0.7098   -1.0489    0.0633 C.3     1  UNL1        0.1898
      2 C           1.3096   -1.6630   -1.2220 C.3     1  UNL1       -0.0069
      3 O           1.0786    0.3601    0.1917 O.2     1  UNL1       -0.4511
      4 C          -0.7643   -0.9575   -0.0855 C.2     1  UNL1        0.2840
      5 N          -1.1691    0.3251   -0.1396 N.am    1  UNL1       -0.1283
      6 C          -0.1502    1.0601    0.0266 C.2     1  UNL1        0.2755
      7 O          -1.5258   -1.9262   -0.1843 O.2     1  UNL1       -0.2691
      8 N          -0.2283    2.4812    0.0655 N.pl3   1  UNL1       -0.2946
      9 C          -1.5491    3.0993    0.1030 C.3     1  UNL1        0.0475
     10 C          -1.4571    4.5954   -0.1442 C.ar    1  UNL1       -0.0158
     11 C          -0.7522    5.1633   -1.2203 C.ar    1  UNL1        0.0597
     12 C          -0.7227    6.5428   -1.3571 C.ar    1  UNL1       -0.0498
     13 C          -1.3762    7.3687   -0.4498 C.ar    1  UNL1       -0.0612
     14 C          -2.0771    6.8089    0.6064 C.ar    1  UNL1       -0.0614
     15 C          -2.1116    5.4272    0.7518 C.ar    1  UNL1       -0.0563
     16 C          -2.1908    2.8613    1.4855 C.3     1  UNL1       -0.0424
     17 C           1.1416   -1.8255    1.3352 C.3     1  UNL1       -0.0069
     18 C           0.6980   -3.3016    1.2721 C.3     1  UNL1       -0.0612
     19 C           2.8474   -1.5933   -1.1860 C.3     1  UNL1       -0.0612
     20 C          -0.0272    4.3450   -2.2785 C.3     1  UNL1        0.4177
     21 F           0.3705    5.2025   -3.2832 F       1  UNL1       -0.1659
     22 F           1.1036    3.7516   -1.7605 F       1  UNL1       -0.1659
     23 F          -0.8646    3.3878   -2.8132 F       1  UNL1       -0.1659
     24 H           0.9493   -1.1235   -2.0775 H       1  UNL1        0.0306
     25 H           1.0011   -2.6911   -1.3043 H       1  UNL1        0.0306
     26 H           0.5902    2.9823    0.4348 H       1  UNL1        0.1508
     27 H          -2.1742    2.6354   -0.6738 H       1  UNL1        0.0546
     28 H          -0.1878    6.9789   -2.1748 H       1  UNL1        0.0623
     29 H          -1.3382    8.4317   -0.5665 H       1  UNL1        0.0618
     30 H          -2.5888    7.4366    1.3057 H       1  UNL1        0.0618
     31 H          -2.6524    4.9978    1.5691 H       1  UNL1        0.0621
     32 H          -1.5739    3.2937    2.2448 H       1  UNL1        0.0251
     33 H          -2.2848    1.8100    1.6594 H       1  UNL1        0.0251
     34 H          -3.1620    3.3157    1.5132 H       1  UNL1        0.0251
     35 H           0.7043   -1.3602    2.2034 H       1  UNL1        0.0306
     36 H           2.2168   -1.7806    1.4331 H       1  UNL1        0.0306
     37 H           1.1391   -3.7530    0.4033 H       1  UNL1        0.0231
     38 H          -0.3708   -3.3321    1.1729 H       1  UNL1        0.0231
     39 H           1.0003   -3.8138    2.1454 H       1  UNL1        0.0231
     40 H           3.2011   -2.1331   -0.3304 H       1  UNL1        0.0231
     41 H           3.1482   -0.5680   -1.1029 H       1  UNL1        0.0231
     42 H           3.2511   -2.0182   -2.0746 H       1  UNL1        0.0231
@<TRIPOS>BOND
     1     4     5    1
     2    11    12   ar
     3     5     6    2
     4    12    13   ar
     5     6     3    1
     6    13    14   ar
     7     4     7    2
     8    14    15   ar
     9    15    10   ar
    10     1     2    1
    11     9    16    1
    12     6     8    1
    13     1    17    1
    14    17    18    1
    15     8     9    1
    16     2    19    1
    17     3     1    1
    18    11    20    1
    19     9    10    1
    20    20    21    1
    21     1     4    1
    22    20    22    1
    23    10    11   ar
    24    20    23    1
    25     2    24    1
    26     2    25    1
    27     8    26    1
    28     9    27    1
    29    12    28    1
    30    13    29    1
    31    14    30    1
    32    15    31    1
    33    16    32    1
    34    16    33    1
    35    16    34    1
    36    17    35    1
    37    17    36    1
    38    18    37    1
    39    18    38    1
    40    18    39    1
    41    19    40    1
    42    19    41    1
    43    19    42    1
@<TRIPOS>MOLECULE
BDB50210886
 49 52 0 0 0
SMALL
GASTEIGER

@<TRIPOS>ATOM
      1 C           1.1416   -0.7114   -0.0002 C.ar    1  UNL1       -0.0597
      2 C           1.1419    0.6866    0.0001 C.ar    1  UNL1       -0.0597
      3 C          -0.0517    1.4075    0.0002 C.ar    1  UNL1       -0.0362
      4 C          -0.0531   -1.4305   -0.0004 C.ar    1  UNL1       -0.0360
      5 C          -1.2278   -0.6981   -0.0002 C.ar    1  UNL1        0.0700
      6 C          -1.2305    0.6812    0.0000 C.ar    1  UNL1        0.0670
      7 N          -2.5521    1.1612    0.0001 N.ar    1  UNL1       -0.3059
      8 C          -3.3569   -0.0105   -0.0001 C.ar    1  UNL1        0.3278
      9 N          -2.5295   -1.1412   -0.0003 N.ar    1  UNL1       -0.2890
     10 O          -4.5914   -0.0277   -0.0002 O.2     1  UNL1       -0.2465
     11 C          -2.9617   -2.5049   -0.0006 C.3     1  UNL1        0.0422
     12 C          -3.8198   -2.7763    1.2404 C.3     1  UNL1       -0.0160
     13 C          -4.2689   -4.2511    1.2520 C.3     1  UNL1        0.0168
     14 N          -4.8843   -4.5968   -0.0048 N.am    1  UNL1       -0.2974
     15 C          -4.2431   -4.2545   -1.2487 C.3     1  UNL1        0.0168
     16 C          -3.8204   -2.7757   -1.2413 C.3     1  UNL1       -0.0160
     17 C          -6.0777   -5.4048   -0.0139 C.2     1  UNL1        0.2466
     18 C          -6.8304   -5.8987    1.2012 C.ar    1  UNL1        0.0372
     19 O          -6.5290   -5.7238   -1.1197 O.2     1  UNL1       -0.2700
     20 C          -6.4403   -5.6186    2.5059 C.ar    1  UNL1       -0.0465
     21 C          -7.1807   -6.1059    3.5758 C.ar    1  UNL1       -0.0468
     22 C          -8.3153   -6.8761    3.3418 C.ar    1  UNL1       -0.0475
     23 C          -8.7071   -7.1574    2.0393 C.ar    1  UNL1       -0.0579
     24 C          -7.9664   -6.6699    0.9695 C.ar    1  UNL1       -0.0494
     25 C          -9.1154   -7.4027    4.4937 C.3     1  UNL1       -0.0395
     26 C          -6.7562   -5.8012    4.9798 C.3     1  UNL1       -0.0394
     27 H           2.0991   -1.2528   -0.0004 H       1  UNL1        0.0618
     28 H           2.1000    1.2270    0.0002 H       1  UNL1        0.0618
     29 H          -0.0565    2.5075    0.0004 H       1  UNL1        0.0639
     30 H          -0.0618   -2.5305   -0.0006 H       1  UNL1        0.0639
     31 H          -2.8666    2.1420    0.0003 H       1  UNL1        0.1704
     32 H          -2.0747   -3.1554   -0.0010 H       1  UNL1        0.0530
     33 H          -3.2306   -2.5649    2.1450 H       1  UNL1        0.0300
     34 H          -4.7054   -2.1241    1.2220 H       1  UNL1        0.0300
     35 H          -4.9922   -4.4069    2.0660 H       1  UNL1        0.0465
     36 H          -3.3946   -4.8975    1.4188 H       1  UNL1        0.0465
     37 H          -4.9417   -4.4293   -2.0802 H       1  UNL1        0.0465
     38 H          -3.3537   -4.8870   -1.3864 H       1  UNL1        0.0465
     39 H          -3.2375   -2.5563   -2.1480 H       1  UNL1        0.0300
     40 H          -4.7163   -2.1380   -1.2147 H       1  UNL1        0.0300
     41 H          -5.5433   -5.0096    2.6916 H       1  UNL1        0.0628
     42 H          -9.6042   -7.7664    1.8545 H       1  UNL1        0.0620
     43 H          -8.2778   -6.8934   -0.0616 H       1  UNL1        0.0625
     44 H          -9.3911   -6.5133    5.0793 H       1  UNL1        0.0278
     45 H          -8.3995   -7.9796    5.0977 H       1  UNL1        0.0278
     46 H          -9.9905   -7.9983    4.1946 H       1  UNL1        0.0278
     47 H          -6.7140   -4.7033    5.0336 H       1  UNL1        0.0278
     48 H          -5.7223   -6.1698    5.0520 H       1  UNL1        0.0278
     49 H          -7.4125   -6.2355    5.7482 H       1  UNL1        0.0278
@<TRIPOS>BOND
     1     2     3   ar
     2     3     6   ar
     3     1     2   ar
     4     5     4   ar
     5    11    16    1
     6    12    13    1
     7    13    14    1
     8    14    15    1
     9    15    16    1
    10     6     7   ar
    11    14    17   am
    12     7     8   ar
    13    17    18    1
    14     8     9   ar
    15    17    19    2
    16     9     5   ar
    17    18    20   ar
    18     4     1   ar
    19    20    21   ar
    20     8    10    2
    21    21    22   ar
    22     5     6   ar
    23    22    23   ar
    24     9    11    1
    25    23    24   ar
    26    24    18   ar
    27    11    12    1
    28    22    25    1
    29    21    26    1
    30     1    27    1
    31     2    28    1
    32     3    29    1
    33     4    30    1
    34     7    31    1
    35    11    32    1
    36    12    33    1
    37    12    34    1
    38    13    35    1
    39    13    36    1
    40    15    37    1
    41    15    38    1
    42    16    39    1
    43    16    40    1
    44    20    41    1
    45    23    42    1
    46    24    43    1
    47    25    44    1
    48    25    45    1
    49    25    46    1
    50    26    47    1
    51    26    48    1
    52    26    49    1
@<TRIPOS>MOLECULE
BDB50210892
 53 56 0 0 0
SMALL
GASTEIGER

@<TRIPOS>ATOM
      1 C           1.1450   -0.7149   -0.0002 C.ar    1  UNL1       -0.0594
      2 C           1.1509    0.6832   -0.0001 C.ar    1  UNL1       -0.0568
      3 C          -0.0433    1.4014    0.0000 C.ar    1  UNL1       -0.0250
      4 C          -0.0524   -1.4296   -0.0003 C.ar    1  UNL1       -0.0360
      5 C          -1.2268   -0.6941   -0.0002 C.ar    1  UNL1        0.0702
      6 C          -1.2272    0.6831    0.0000 C.ar    1  UNL1        0.0699
      7 N          -2.5461    1.1676    0.0000 N.ar    1  UNL1       -0.3057
      8 C          -3.3523   -0.0038   -0.0001 C.ar    1  UNL1        0.3278
      9 N          -2.5264   -1.1355   -0.0003 N.ar    1  UNL1       -0.2890
     10 O          -4.5868   -0.0206   -0.0002 O.2     1  UNL1       -0.2465
     11 C          -2.9595   -2.4988   -0.0005 C.3     1  UNL1        0.0422
     12 C          -3.8177   -2.7692   -1.2416 C.3     1  UNL1       -0.0160
     13 C          -4.2678   -4.2437   -1.2537 C.3     1  UNL1        0.0168
     14 N          -4.8835   -4.5894    0.0030 N.am    1  UNL1       -0.2974
     15 C          -4.2420   -4.2480    1.2471 C.3     1  UNL1        0.0168
     16 C          -3.8183   -2.7694    1.2402 C.3     1  UNL1       -0.0160
     17 C          -6.0774   -5.3967    0.0118 C.2     1  UNL1        0.2467
     18 C          -6.8304   -5.8896   -1.2034 C.ar    1  UNL1        0.0404
     19 O          -6.5289   -5.7157    1.1175 O.2     1  UNL1       -0.2700
     20 C          -6.4400   -5.6093   -2.5089 C.ar    1  UNL1       -0.0076
     21 C          -7.1821   -6.0967   -3.5780 C.ar    1  UNL1        0.1237
     22 C          -8.3159   -6.8654   -3.3437 C.ar    1  UNL1       -0.0088
     23 C          -8.7082   -7.1470   -2.0407 C.ar    1  UNL1       -0.0547
     24 C          -7.9663   -6.6597   -0.9715 C.ar    1  UNL1       -0.0492
     25 C          -9.1157   -7.3907   -4.4962 C.3     1  UNL1       -0.0362
     26 O          -6.7873   -5.8132   -4.8911 O.3     1  UNL1       -0.4948
     27 C          -5.5984   -5.0101   -4.9106 C.3     1  UNL1        0.0788
     28 C          -0.0465    2.8989    0.0002 C.3     1  UNL1       -0.0377
     29 H           2.1004   -1.2600   -0.0003 H       1  UNL1        0.0618
     30 H           2.1095    1.2226    0.0000 H       1  UNL1        0.0621
     31 H          -0.0642   -2.5296   -0.0005 H       1  UNL1        0.0639
     32 H          -2.8583    2.1492    0.0002 H       1  UNL1        0.1705
     33 H          -2.0729   -3.1499   -0.0003 H       1  UNL1        0.0530
     34 H          -3.2283   -2.5590   -2.1462 H       1  UNL1        0.0300
     35 H          -4.7023   -2.1156   -1.2233 H       1  UNL1        0.0300
     36 H          -4.9914   -4.3977   -2.0677 H       1  UNL1        0.0465
     37 H          -3.3946   -4.8915   -1.4210 H       1  UNL1        0.0465
     38 H          -4.9416   -4.4226    2.0778 H       1  UNL1        0.0465
     39 H          -3.3530   -4.8808    1.3856 H       1  UNL1        0.0465
     40 H          -3.2344   -2.5508    2.1464 H       1  UNL1        0.0300
     41 H          -4.7140   -2.1313    1.2148 H       1  UNL1        0.0300
     42 H          -5.5427   -5.0009   -2.6951 H       1  UNL1        0.0662
     43 H          -9.6057   -7.7555   -1.8556 H       1  UNL1        0.0622
     44 H          -8.2772   -6.8830    0.0597 H       1  UNL1        0.0625
     45 H          -8.4005   -7.9681   -5.1004 H       1  UNL1        0.0279
     46 H          -9.3912   -6.5010   -5.0815 H       1  UNL1        0.0279
     47 H          -9.9912   -7.9857   -4.1972 H       1  UNL1        0.0279
     48 H          -4.7936   -5.5546   -4.3950 H       1  UNL1        0.0660
     49 H          -5.7965   -4.0694   -4.3760 H       1  UNL1        0.0660
     50 H          -5.3013   -4.7962   -5.9479 H       1  UNL1        0.0660
     51 H           0.5471    3.1764   -0.8833 H       1  UNL1        0.0278
     52 H           0.5471    3.1761    0.8838 H       1  UNL1        0.0278
     53 H          -1.0488    3.3520    0.0003 H       1  UNL1        0.0278
@<TRIPOS>BOND
     1     1     2   ar
     2     5     4   ar
     3    11    16    1
     4    12    13    1
     5    13    14    1
     6    14    15    1
     7    15    16    1
     8     6     7   ar
     9    14    17   am
    10     7     8   ar
    11    17    18    1
    12     8     9   ar
    13    17    19    2
    14     9     5   ar
    15    18    20   ar
    16     4     1   ar
    17    20    21   ar
    18     8    10    2
    19    21    22   ar
    20     5     6   ar
    21    22    23   ar
    22     9    11    1
    23    23    24   ar
    24    24    18   ar
    25    11    12    1
    26    22    25    1
    27    21    26    1
    28     2     3   ar
    29    26    27    1
    30     3     6   ar
    31     3    28    1
    32     1    29    1
    33     2    30    1
    34     4    31    1
    35     7    32    1
    36    11    33    1
    37    12    34    1
    38    12    35    1
    39    13    36    1
    40    13    37    1
    41    15    38    1
    42    15    39    1
    43    16    40    1
    44    16    41    1
    45    20    42    1
    46    23    43    1
    47    24    44    1
    48    25    45    1
    49    25    46    1
    50    25    47    1
    51    27    48    1
    52    27    49    1
    53    27    50    1
    54    28    51    1
    55    28    52    1
    56    28    53    1
@<TRIPOS>MOLECULE
BDB29843
 48 50 0 0 0
SMALL
GASTEIGER

@<TRIPOS>ATOM
      1 C           1.1899   -0.6825   -0.0001 C.ar    1  UNL1       -0.0087
      2 C           1.1915    0.7069    0.0000 C.ar    1  UNL1        0.0456
      3 C          -0.0113    1.4030    0.0000 C.ar    1  UNL1       -0.0430
      4 C          -1.2154    0.7088   -0.0001 C.ar    1  UNL1       -0.0586
      5 C          -1.2168   -0.6811   -0.0002 C.ar    1  UNL1       -0.0379
      6 C          -0.0138   -1.3768   -0.0002 C.ar    1  UNL1        0.0769
      7 C           2.4866   -1.4324   -0.0002 C.3     1  UNL1       -0.0366
      8 CL          2.6803    1.5622    0.0001 Cl      1  UNL1       -0.0832
      9 S          -0.0127   -3.1426   -0.0003 S.O2    1  UNL1       -0.0578
     10 N           1.5861   -3.7335    0.0875 N.pl3   1  UNL1       -0.5211
     11 C           1.8228   -5.1139    0.1243 C.ar    1  UNL1       -0.0351
     12 C           0.9931   -7.3642    0.1385 C.ar    1  UNL1       -0.0598
     13 C           0.7499   -5.9986    0.1055 C.ar    1  UNL1       -0.0580
     14 N           3.0709   -5.5685    0.1735 N.ar    1  UNL1       -0.2746
     15 C           3.3377   -6.8700    0.2061 C.ar    1  UNL1        0.0486
     16 C           2.3082   -7.8035    0.1895 C.ar    1  UNL1       -0.0400
     17 O          -0.8072   -3.6403    1.1922 O.2     1  UNL1       -0.1842
     18 O          -0.6652   -3.6398   -1.2762 O.2     1  UNL1       -0.1842
     19 C           4.7719   -7.3379    0.2615 C.3     1  UNL1        0.0664
     20 C           5.7703   -6.1984    0.2737 C.2     1  UNL1        0.2214
     21 N           7.1368   -6.4868    0.3238 N.am    1  UNL1       -0.3012
     22 O           5.3980   -5.0205    0.2402 O.2     1  UNL1       -0.2752
     23 C           7.5802   -7.8523    0.3613 C.3     1  UNL1        0.0147
     24 C           8.0961   -5.4182    0.3341 C.3     1  UNL1        0.0147
     25 C           9.1322   -5.6469   -0.7821 C.3     1  UNL1       -0.0371
     26 C           9.7428   -7.0498   -0.6256 C.3     1  UNL1       -0.0502
     27 C           8.6149   -8.0875   -0.7548 C.3     1  UNL1       -0.0371
     28 H          -0.0104    2.5030    0.0001 H       1  UNL1        0.0632
     29 H          -2.1676    1.2596    0.0000 H       1  UNL1        0.0619
     30 H          -2.1699   -1.2302   -0.0003 H       1  UNL1        0.0636
     31 H           3.0277   -1.0671    0.8851 H       1  UNL1        0.0279
     32 H           3.0278   -1.0670   -0.8854 H       1  UNL1        0.0279
     33 H           2.3692   -2.5261   -0.0003 H       1  UNL1        0.0279
     34 H           0.1609   -8.0834    0.1245 H       1  UNL1        0.0618
     35 H          -0.2818   -5.6193    0.0647 H       1  UNL1        0.0620
     36 H           2.5338   -8.8798    0.2167 H       1  UNL1        0.0636
     37 H           4.9142   -7.9461    1.1670 H       1  UNL1        0.0422
     38 H           4.9733   -7.9787   -0.6096 H       1  UNL1        0.0422
     39 H           6.7209   -8.5223    0.2107 H       1  UNL1        0.0464
     40 H           8.0412   -8.0616    1.3379 H       1  UNL1        0.0464
     41 H           7.5809   -4.4611    0.1648 H       1  UNL1        0.0464
     42 H           8.6071   -5.3921    1.3079 H       1  UNL1        0.0464
     43 H           9.9274   -4.8905   -0.7073 H       1  UNL1        0.0280
     44 H           8.6395   -5.5685   -1.7624 H       1  UNL1        0.0280
     45 H          10.4903   -7.2175   -1.4150 H       1  UNL1        0.0266
     46 H          10.2150   -7.1400    0.3638 H       1  UNL1        0.0266
     47 H           9.0349   -9.0997   -0.6591 H       1  UNL1        0.0280
     48 H           8.1292   -7.9808   -1.7359 H       1  UNL1        0.0280
@<TRIPOS>BOND
     1     1     2   ar
     2     1     6   ar
     3     2     3   ar
     4     3     4   ar
     5     4     5   ar
     6     5     6   ar
     7     1     7    1
     8     2     8    1
     9     6     9    1
    10     9    10    1
    11    10    11    1
    12    13    11   ar
    13    11    14   ar
    14    12    13   ar
    15    12    16   ar
    16    14    15   ar
    17    15    16   ar
    18     9    17    2
    19     9    18    2
    20    15    19    1
    21    19    20    1
    22    20    21   am
    23    20    22    2
    24    23    21    1
    25    21    24    1
    26    23    27    1
    27    24    25    1
    28    25    26    1
    29    26    27    1
    30     3    28    1
    31     4    29    1
    32     5    30    1
    33     7    31    1
    34     7    32    1
    35     7    33    1
    36    12    34    1
    37    13    35    1
    38    16    36    1
    39    19    37    1
    40    19    38    1
    41    23    39    1
    42    23    40    1
    43    24    41    1
    44    24    42    1
    45    25    43    1
    46    25    44    1
    47    26    45    1
    48    26    46    1
    49    27    47    1
    50    27    48    1
@<TRIPOS>MOLECULE
BDB50210890
 49 52 0 0 0
SMALL
GASTEIGER

@<TRIPOS>ATOM
      1 C           1.1576   -0.6988   -0.0003 C.ar    1  UNL1       -0.0597
      2 C           1.1444    0.6966    0.0000 C.ar    1  UNL1       -0.0606
      3 C          -0.0593    1.3969    0.0002 C.ar    1  UNL1       -0.0459
      4 C          -0.0312   -1.4251   -0.0004 C.ar    1  UNL1       -0.0370
      5 C          -1.2263   -0.7217   -0.0002 C.ar    1  UNL1        0.0595
      6 C          -1.2354    0.6629    0.0001 C.ar    1  UNL1        0.0407
      7 S          -2.8644    1.3073    0.0002 S.2     1  UNL1       -0.0266
      8 C          -3.5400   -0.3190   -0.0001 C.ar    1  UNL1        0.2918
      9 N          -2.5217   -1.2939   -0.0003 N.ar    1  UNL1       -0.2987
     10 O          -4.7479   -0.5710   -0.0002 O.2     1  UNL1       -0.2594
     11 C          -2.7695   -2.7034   -0.0006 C.3     1  UNL1        0.0413
     12 C          -3.5840   -3.0860    1.2404 C.3     1  UNL1       -0.0160
     13 C          -3.8339   -4.6073    1.2520 C.3     1  UNL1        0.0168
     14 N          -4.3982   -5.0314   -0.0048 N.am    1  UNL1       -0.2974
     15 C          -3.8079   -4.6073   -1.2487 C.3     1  UNL1        0.0168
     16 C          -3.5847   -3.0854   -1.2413 C.3     1  UNL1       -0.0160
     17 C          -5.4740   -5.9903   -0.0139 C.2     1  UNL1        0.2467
     18 C          -6.1547   -6.5795    1.2012 C.ar    1  UNL1        0.0404
     19 O          -5.8791   -6.3663   -1.1197 O.2     1  UNL1       -0.2700
     20 C          -5.8051   -6.2502    2.5067 C.ar    1  UNL1       -0.0076
     21 C          -6.4756   -6.8323    3.5757 C.ar    1  UNL1        0.1237
     22 C          -7.4971   -7.7450    3.3411 C.ar    1  UNL1       -0.0088
     23 C          -7.8485   -8.0759    2.0379 C.ar    1  UNL1       -0.0547
     24 C          -7.1780   -7.4938    0.9690 C.ar    1  UNL1       -0.0492
     25 C          -8.2199   -8.3724    4.4934 C.3     1  UNL1       -0.0362
     26 O          -6.1221   -6.4993    4.8888 O.3     1  UNL1       -0.4948
     27 C          -5.0506   -5.5451    4.9086 C.3     1  UNL1        0.0788
     28 H           2.1196   -1.2324   -0.0004 H       1  UNL1        0.0618
     29 H           2.0953    1.2496    0.0001 H       1  UNL1        0.0618
     30 H          -0.0763    2.4967    0.0004 H       1  UNL1        0.0629
     31 H          -0.0221   -2.5251   -0.0006 H       1  UNL1        0.0638
     32 H          -1.8041   -3.2307   -0.0009 H       1  UNL1        0.0530
     33 H          -3.0281   -2.7985    2.1450 H       1  UNL1        0.0300
     34 H          -4.5482   -2.5568    1.2220 H       1  UNL1        0.0300
     35 H          -4.5303   -4.8575    2.0659 H       1  UNL1        0.0465
     36 H          -2.8818   -5.1322    1.4188 H       1  UNL1        0.0465
     37 H          -4.4772   -4.8730   -2.0802 H       1  UNL1        0.0465
     38 H          -2.8426   -5.1164   -1.3864 H       1  UNL1        0.0465
     39 H          -3.0360   -2.7908   -2.1480 H       1  UNL1        0.0300
     40 H          -4.5572   -2.5721   -1.2147 H       1  UNL1        0.0300
     41 H          -4.9967   -5.5279    2.6932 H       1  UNL1        0.0662
     42 H          -8.6571   -8.7983    1.8527 H       1  UNL1        0.0622
     43 H          -7.4566   -7.7561   -0.0623 H       1  UNL1        0.0625
     44 H          -8.6113   -7.5275    5.0790 H       1  UNL1        0.0279
     45 H          -7.4342   -8.8497    5.0974 H       1  UNL1        0.0279
     46 H          -9.0085   -9.0786    4.1942 H       1  UNL1        0.0279
     47 H          -5.3722   -4.6390    4.3743 H       1  UNL1        0.0660
     48 H          -4.1805   -5.9775    4.3929 H       1  UNL1        0.0660
     49 H          -4.7846   -5.2939    5.9460 H       1  UNL1        0.0660
@<TRIPOS>BOND
     1     3     6   ar
     2     1     2   ar
     3     5     4   ar
     4    11    16    1
     5    12    13    1
     6    13    14    1
     7    14    15    1
     8    15    16    1
     9     6     7   ar
    10    14    17   am
    11     7     8   ar
    12    17    18    1
    13     8     9   ar
    14    17    19    2
    15     9     5   ar
    16    18    20   ar
    17     4     1   ar
    18    20    21   ar
    19     8    10    2
    20    21    22   ar
    21     5     6   ar
    22    22    23   ar
    23     9    11    1
    24    23    24   ar
    25    24    18   ar
    26    11    12    1
    27    22    25    1
    28    21    26    1
    29     2     3   ar
    30    26    27    1
    31     1    28    1
    32     2    29    1
    33     3    30    1
    34     4    31    1
    35    11    32    1
    36    12    33    1
    37    12    34    1
    38    13    35    1
    39    13    36    1
    40    15    37    1
    41    15    38    1
    42    16    39    1
    43    16    40    1
    44    20    41    1
    45    23    42    1
    46    24    43    1
    47    25    44    1
    48    25    45    1
    49    25    46    1
    50    27    47    1
    51    27    48    1
    52    27    49    1
